data_image0
_cell_length_a       29.2649
_cell_length_b       7.8975
_cell_length_c       42.5654
_cell_angle_alpha    90
_cell_angle_beta     90
_cell_angle_gamma    90

_symmetry_space_group_name_H-M    "P 1"
_symmetry_int_tables_number       1

loop_
  _symmetry_equiv_pos_as_xyz
  'x, y, z'

loop_
  _atom_site_label
  _atom_site_occupancy
  _atom_site_fract_x
  _atom_site_fract_y
  _atom_site_fract_z
  _atom_site_thermal_displace_type
  _atom_site_B_iso_or_equiv
  _atom_site_type_symbol
  Zn1      1.0000 0.84938  0.91663  0.84330  Biso   1.000  Zn
  O1       1.0000 0.78817  0.60950  0.50586  Biso   1.000  O
  O2       1.0000 0.77970  0.68900  0.66132  Biso   1.000  O
  O3       1.0000 0.82897  0.81300  0.80395  Biso   1.000  O
  O4       1.0000 0.61890  0.54160  0.60683  Biso   1.000  O
  C1       1.0000 0.75848  0.72180  0.60759  Biso   1.000  C
  O5       1.0000 0.84892  0.49600  0.36454  Biso   1.000  O
  C2       1.0000 0.75538  0.58110  0.55692  Biso   1.000  C
  O6       1.0000 0.86335  0.03660  0.78359  Biso   1.000  O
  C3       1.0000 0.80053  0.54570  0.47724  Biso   1.000  C
  C4       1.0000 0.77807  0.49040  0.53025  Biso   1.000  C
  H1       1.0000 0.80600  0.43740  0.53750  Biso   1.000  H
  H2       1.0000 0.75800  0.40260  0.52230  Biso   1.000  H
  C5       1.0000 0.70724  0.59060  0.55737  Biso   1.000  C
  C6       1.0000 0.78124  0.64970  0.58166  Biso   1.000  C
  C7       1.0000 0.68502  0.66040  0.58346  Biso   1.000  C
  C8       1.0000 0.83869  0.93630  0.72217  Biso   1.000  C
  H3       1.0000 0.85800  0.02930  0.72420  Biso   1.000  H
  C9       1.0000 0.84027  0.90690  0.78070  Biso   1.000  C
  C10      1.0000 0.79501  0.74970  0.68922  Biso   1.000  C
  C11      1.0000 0.82476  0.88690  0.69268  Biso   1.000  C
  H4       1.0000 0.83510  0.94490  0.67500  Biso   1.000  H
  N1       1.0000 0.80979  0.12830  0.85222  Biso   1.000  N
  C12      1.0000 0.78481  0.79930  0.63455  Biso   1.000  C
  H5       1.0000 0.81680  0.81030  0.62900  Biso   1.000  H
  H6       1.0000 0.77290  0.91100  0.63940  Biso   1.000  H
  C13      1.0000 0.82449  0.84950  0.74911  Biso   1.000  C
  C14      1.0000 0.71043  0.72440  0.60893  Biso   1.000  C
  C15      1.0000 0.68684  0.79450  0.63742  Biso   1.000  C
  H7       1.0000 0.70930  0.83160  0.65240  Biso   1.000  H
  H8       1.0000 0.66810  0.70810  0.64670  Biso   1.000  H
  H9       1.0000 0.66800  0.88860  0.63140  Biso   1.000  H
  C16      1.0000 0.83289  0.64740  0.58060  Biso   1.000  C
  H10      1.0000 0.84480  0.69910  0.59930  Biso   1.000  H
  H11      1.0000 0.84320  0.70920  0.56250  Biso   1.000  H
  H12      1.0000 0.84340  0.53250  0.57930  Biso   1.000  H
  C17      1.0000 0.79467  0.71270  0.74524  Biso   1.000  C
  H13      1.0000 0.78450  0.65400  0.76280  Biso   1.000  H
  C18      1.0000 0.78971  0.38210  0.46704  Biso   1.000  C
  H14      1.0000 0.77440  0.30740  0.48030  Biso   1.000  H
  C19      1.0000 0.82445  0.44250  0.41656  Biso   1.000  C
  C20      1.0000 0.80203  0.33310  0.43708  Biso   1.000  C
  H15      1.0000 0.79520  0.22390  0.43040  Biso   1.000  H
  C21      1.0000 0.83586  0.60170  0.42730  Biso   1.000  C
  H16      1.0000 0.85170  0.67520  0.41420  Biso   1.000  H
  C22      1.0000 0.78018  0.66340  0.71592  Biso   1.000  C
  H17      1.0000 0.76040  0.57200  0.71390  Biso   1.000  H
  C23      1.0000 0.63410  0.66890  0.58503  Biso   1.000  C
  H18      1.0000 0.62450  0.78010  0.59210  Biso   1.000  H
  H19      1.0000 0.62110  0.64830  0.56440  Biso   1.000  H
  C24      1.0000 0.68039  0.52930  0.52928  Biso   1.000  C
  H20      1.0000 0.64830  0.54380  0.53320  Biso   1.000  H
  H21      1.0000 0.68680  0.41160  0.52570  Biso   1.000  H
  H22      1.0000 0.68900  0.59350  0.51110  Biso   1.000  H
  C25      1.0000 0.82411  0.65430  0.45739  Biso   1.000  C
  H23      1.0000 0.83200  0.76220  0.46420  Biso   1.000  H
  C26      1.0000 0.78270  0.10720  0.88043  Biso   1.000  C
  H24      1.0000 0.76470  0.20720  0.88390  Biso   1.000  H
  H25      1.0000 0.80260  0.08930  0.89810  Biso   1.000  H
  H26      1.0000 0.76290  0.01130  0.87800  Biso   1.000  H
  C27      1.0000 0.55950  0.42740  0.63467  Biso   1.000  C
  H27      1.0000 0.58030  0.35980  0.64540  Biso   1.000  H
  C28      1.0000 0.57256  0.53590  0.61205  Biso   1.000  C
  C29      1.0000 0.78039  0.18670  0.82571  Biso   1.000  C
  H28      1.0000 0.76330  0.28440  0.83210  Biso   1.000  H
  H29      1.0000 0.75970  0.09770  0.81990  Biso   1.000  H
  H30      1.0000 0.79930  0.21540  0.80810  Biso   1.000  H
  C30      1.0000 0.50970  0.42260  0.64131  Biso   1.000  C
  H31      1.0000 0.49830  0.35160  0.65690  Biso   1.000  H
  C31      1.0000 0.48069  0.52360  0.62433  Biso   1.000  C
  C32      1.0000 0.54078  0.63260  0.59701  Biso   1.000  C
  H32      1.0000 0.55080  0.71150  0.58230  Biso   1.000  H
  C33      1.0000 0.49450  0.61900  0.60250  Biso   1.000  C
  H33      1.0000 0.47370  0.67920  0.59030  Biso   1.000  H
  C34      1.0000 0.83584  0.38560  0.38389  Biso   1.000  C
  O7       1.0000 0.83126  0.23100  0.37841  Biso   1.000  O
  Zn2      1.0000 0.84938  0.08337  0.34330  Biso   1.000  Zn
  O8       1.0000 0.78817  0.39050  0.00586  Biso   1.000  O
  O9       1.0000 0.77970  0.31100  0.16132  Biso   1.000  O
  O10      1.0000 0.82897  0.18700  0.30395  Biso   1.000  O
  O11      1.0000 0.61890  0.45840  0.10683  Biso   1.000  O
  C35      1.0000 0.75848  0.27820  0.10759  Biso   1.000  C
  O12      1.0000 0.84892  0.50400  0.86454  Biso   1.000  O
  C36      1.0000 0.75538  0.41890  0.05692  Biso   1.000  C
  O13      1.0000 0.86335  0.96340  0.28359  Biso   1.000  O
  C37      1.0000 0.80053  0.45430  0.97724  Biso   1.000  C
  C38      1.0000 0.77807  0.50960  0.03025  Biso   1.000  C
  H34      1.0000 0.80600  0.56260  0.03750  Biso   1.000  H
  H35      1.0000 0.75800  0.59740  0.02230  Biso   1.000  H
  C39      1.0000 0.70724  0.40940  0.05737  Biso   1.000  C
  C40      1.0000 0.78124  0.35030  0.08166  Biso   1.000  C
  C41      1.0000 0.68502  0.33960  0.08346  Biso   1.000  C
  C42      1.0000 0.83869  0.06370  0.22217  Biso   1.000  C
  H36      1.0000 0.85800  0.97070  0.22420  Biso   1.000  H
  C43      1.0000 0.84027  0.09310  0.28070  Biso   1.000  C
  C44      1.0000 0.79501  0.25030  0.18922  Biso   1.000  C
  C45      1.0000 0.82476  0.11310  0.19268  Biso   1.000  C
  H37      1.0000 0.83510  0.05510  0.17500  Biso   1.000  H
  N2       1.0000 0.80979  0.87170  0.35222  Biso   1.000  N
  C46      1.0000 0.78481  0.20070  0.13455  Biso   1.000  C
  H38      1.0000 0.81680  0.18970  0.12900  Biso   1.000  H
  H39      1.0000 0.77290  0.08900  0.13940  Biso   1.000  H
  C47      1.0000 0.82449  0.15050  0.24911  Biso   1.000  C
  C48      1.0000 0.71043  0.27560  0.10893  Biso   1.000  C
  C49      1.0000 0.68684  0.20550  0.13742  Biso   1.000  C
  H40      1.0000 0.70930  0.16840  0.15240  Biso   1.000  H
  H41      1.0000 0.66810  0.29190  0.14670  Biso   1.000  H
  H42      1.0000 0.66800  0.11140  0.13140  Biso   1.000  H
  C50      1.0000 0.83289  0.35260  0.08060  Biso   1.000  C
  H43      1.0000 0.84480  0.30090  0.09930  Biso   1.000  H
  H44      1.0000 0.84320  0.29080  0.06250  Biso   1.000  H
  H45      1.0000 0.84340  0.46750  0.07930  Biso   1.000  H
  C51      1.0000 0.79467  0.28730  0.24524  Biso   1.000  C
  H46      1.0000 0.78450  0.34600  0.26280  Biso   1.000  H
  C52      1.0000 0.78971  0.61790  0.96704  Biso   1.000  C
  H47      1.0000 0.77440  0.69260  0.98030  Biso   1.000  H
  C53      1.0000 0.82445  0.55750  0.91656  Biso   1.000  C
  C54      1.0000 0.80203  0.66690  0.93708  Biso   1.000  C
  H48      1.0000 0.79520  0.77610  0.93040  Biso   1.000  H
  C55      1.0000 0.83586  0.39830  0.92730  Biso   1.000  C
  H49      1.0000 0.85170  0.32480  0.91420  Biso   1.000  H
  C56      1.0000 0.78018  0.33660  0.21592  Biso   1.000  C
  H50      1.0000 0.76040  0.42800  0.21390  Biso   1.000  H
  C57      1.0000 0.63410  0.33110  0.08503  Biso   1.000  C
  H51      1.0000 0.62450  0.21990  0.09210  Biso   1.000  H
  H52      1.0000 0.62110  0.35170  0.06440  Biso   1.000  H
  C58      1.0000 0.68039  0.47070  0.02928  Biso   1.000  C
  H53      1.0000 0.64830  0.45620  0.03320  Biso   1.000  H
  H54      1.0000 0.68680  0.58840  0.02570  Biso   1.000  H
  H55      1.0000 0.68900  0.40650  0.01110  Biso   1.000  H
  C59      1.0000 0.82411  0.34570  0.95739  Biso   1.000  C
  H56      1.0000 0.83200  0.23780  0.96420  Biso   1.000  H
  C60      1.0000 0.78270  0.89280  0.38043  Biso   1.000  C
  H57      1.0000 0.76470  0.79280  0.38390  Biso   1.000  H
  H58      1.0000 0.80260  0.91070  0.39810  Biso   1.000  H
  H59      1.0000 0.76290  0.98870  0.37800  Biso   1.000  H
  C61      1.0000 0.55950  0.57260  0.13467  Biso   1.000  C
  H60      1.0000 0.58030  0.64020  0.14540  Biso   1.000  H
  C62      1.0000 0.57256  0.46410  0.11205  Biso   1.000  C
  C63      1.0000 0.78039  0.81330  0.32571  Biso   1.000  C
  H61      1.0000 0.76330  0.71560  0.33210  Biso   1.000  H
  H62      1.0000 0.75970  0.90230  0.31990  Biso   1.000  H
  H63      1.0000 0.79930  0.78460  0.30810  Biso   1.000  H
  C64      1.0000 0.50970  0.57740  0.14131  Biso   1.000  C
  H64      1.0000 0.49830  0.64840  0.15690  Biso   1.000  H
  C65      1.0000 0.48069  0.47640  0.12433  Biso   1.000  C
  C66      1.0000 0.54078  0.36740  0.09701  Biso   1.000  C
  H65      1.0000 0.55080  0.28850  0.08230  Biso   1.000  H
  C67      1.0000 0.49450  0.38100  0.10250  Biso   1.000  C
  H66      1.0000 0.47370  0.32080  0.09030  Biso   1.000  H
  C68      1.0000 0.83584  0.61440  0.88389  Biso   1.000  C
  O14      1.0000 0.83126  0.76900  0.87841  Biso   1.000  O
  Zn3      1.0000 0.34938  0.58337  0.15670  Biso   1.000  Zn
  O15      1.0000 0.28817  0.89050  0.49414  Biso   1.000  O
  O16      1.0000 0.27970  0.81100  0.33868  Biso   1.000  O
  O17      1.0000 0.32897  0.68700  0.19605  Biso   1.000  O
  O18      1.0000 0.11890  0.95840  0.39317  Biso   1.000  O
  C69      1.0000 0.25848  0.77820  0.39241  Biso   1.000  C
  O19      1.0000 0.34892  0.00400  0.63546  Biso   1.000  O
  C70      1.0000 0.25538  0.91890  0.44308  Biso   1.000  C
  O20      1.0000 0.36335  0.46340  0.21641  Biso   1.000  O
  C71      1.0000 0.30053  0.95430  0.52276  Biso   1.000  C
  C72      1.0000 0.27807  0.00960  0.46975  Biso   1.000  C
  H67      1.0000 0.30600  0.06260  0.46250  Biso   1.000  H
  H68      1.0000 0.25800  0.09740  0.47770  Biso   1.000  H
  C73      1.0000 0.20724  0.90940  0.44263  Biso   1.000  C
  C74      1.0000 0.28124  0.85030  0.41834  Biso   1.000  C
  C75      1.0000 0.18502  0.83960  0.41654  Biso   1.000  C
  C76      1.0000 0.33869  0.56370  0.27783  Biso   1.000  C
  H69      1.0000 0.35800  0.47070  0.27580  Biso   1.000  H
  C77      1.0000 0.34027  0.59310  0.21930  Biso   1.000  C
  C78      1.0000 0.29501  0.75030  0.31078  Biso   1.000  C
  C79      1.0000 0.32476  0.61310  0.30732  Biso   1.000  C
  H70      1.0000 0.33510  0.55510  0.32500  Biso   1.000  H
  N3       1.0000 0.30979  0.37170  0.14778  Biso   1.000  N
  C80      1.0000 0.28481  0.70070  0.36545  Biso   1.000  C
  H71      1.0000 0.31680  0.68970  0.37100  Biso   1.000  H
  H72      1.0000 0.27290  0.58900  0.36060  Biso   1.000  H
  C81      1.0000 0.32449  0.65050  0.25089  Biso   1.000  C
  C82      1.0000 0.21043  0.77560  0.39107  Biso   1.000  C
  C83      1.0000 0.18684  0.70550  0.36258  Biso   1.000  C
  H73      1.0000 0.20930  0.66840  0.34760  Biso   1.000  H
  H74      1.0000 0.16810  0.79190  0.35330  Biso   1.000  H
  H75      1.0000 0.16800  0.61140  0.36860  Biso   1.000  H
  C84      1.0000 0.33289  0.85260  0.41940  Biso   1.000  C
  H76      1.0000 0.34480  0.80090  0.40070  Biso   1.000  H
  H77      1.0000 0.34320  0.79080  0.43750  Biso   1.000  H
  H78      1.0000 0.34340  0.96750  0.42070  Biso   1.000  H
  C85      1.0000 0.29467  0.78730  0.25476  Biso   1.000  C
  H79      1.0000 0.28450  0.84600  0.23720  Biso   1.000  H
  C86      1.0000 0.28971  0.11790  0.53296  Biso   1.000  C
  H80      1.0000 0.27440  0.19260  0.51970  Biso   1.000  H
  C87      1.0000 0.32445  0.05750  0.58344  Biso   1.000  C
  C88      1.0000 0.30203  0.16690  0.56292  Biso   1.000  C
  H81      1.0000 0.29520  0.27610  0.56960  Biso   1.000  H
  C89      1.0000 0.33586  0.89830  0.57270  Biso   1.000  C
  H82      1.0000 0.35170  0.82480  0.58580  Biso   1.000  H
  C90      1.0000 0.28018  0.83660  0.28408  Biso   1.000  C
  H83      1.0000 0.26040  0.92800  0.28610  Biso   1.000  H
  C91      1.0000 0.13410  0.83110  0.41497  Biso   1.000  C
  H84      1.0000 0.12450  0.71990  0.40790  Biso   1.000  H
  H85      1.0000 0.12110  0.85170  0.43560  Biso   1.000  H
  C92      1.0000 0.18039  0.97070  0.47072  Biso   1.000  C
  H86      1.0000 0.14830  0.95620  0.46680  Biso   1.000  H
  H87      1.0000 0.18680  0.08840  0.47430  Biso   1.000  H
  H88      1.0000 0.18900  0.90650  0.48890  Biso   1.000  H
  C93      1.0000 0.32411  0.84570  0.54261  Biso   1.000  C
  H89      1.0000 0.33200  0.73780  0.53580  Biso   1.000  H
  C94      1.0000 0.28270  0.39280  0.11957  Biso   1.000  C
  H90      1.0000 0.26470  0.29280  0.11610  Biso   1.000  H
  H91      1.0000 0.30260  0.41070  0.10190  Biso   1.000  H
  H92      1.0000 0.26290  0.48870  0.12200  Biso   1.000  H
  C95      1.0000 0.05950  0.07260  0.36533  Biso   1.000  C
  H93      1.0000 0.08030  0.14020  0.35460  Biso   1.000  H
  C96      1.0000 0.07256  0.96410  0.38795  Biso   1.000  C
  C97      1.0000 0.28039  0.31330  0.17429  Biso   1.000  C
  H94      1.0000 0.26330  0.21560  0.16790  Biso   1.000  H
  H95      1.0000 0.25970  0.40230  0.18010  Biso   1.000  H
  H96      1.0000 0.29930  0.28460  0.19190  Biso   1.000  H
  C98      1.0000 0.00970  0.07740  0.35869  Biso   1.000  C
  H97      1.0000 0.99830  0.14840  0.34310  Biso   1.000  H
  C99      1.0000 0.98069  0.97640  0.37567  Biso   1.000  C
  C100     1.0000 0.04078  0.86740  0.40299  Biso   1.000  C
  H98      1.0000 0.05080  0.78850  0.41770  Biso   1.000  H
  C101     1.0000 0.99450  0.88100  0.39750  Biso   1.000  C
  H99      1.0000 0.97370  0.82080  0.40970  Biso   1.000  H
  C102     1.0000 0.33584  0.11440  0.61611  Biso   1.000  C
  O21      1.0000 0.33126  0.26900  0.62159  Biso   1.000  O
  Zn4      1.0000 0.34938  0.41663  0.65670  Biso   1.000  Zn
  O22      1.0000 0.28817  0.10950  0.99414  Biso   1.000  O
  O23      1.0000 0.27970  0.18900  0.83868  Biso   1.000  O
  O24      1.0000 0.32897  0.31300  0.69605  Biso   1.000  O
  O25      1.0000 0.11890  0.04160  0.89317  Biso   1.000  O
  C103     1.0000 0.25848  0.22180  0.89241  Biso   1.000  C
  O26      1.0000 0.34892  0.99600  0.13546  Biso   1.000  O
  C104     1.0000 0.25538  0.08110  0.94308  Biso   1.000  C
  O27      1.0000 0.36335  0.53660  0.71641  Biso   1.000  O
  C105     1.0000 0.30053  0.04570  0.02276  Biso   1.000  C
  C106     1.0000 0.27807  0.99040  0.96975  Biso   1.000  C
  H100     1.0000 0.30600  0.93740  0.96250  Biso   1.000  H
  H101     1.0000 0.25800  0.90260  0.97770  Biso   1.000  H
  C107     1.0000 0.20724  0.09060  0.94263  Biso   1.000  C
  C108     1.0000 0.28124  0.14970  0.91834  Biso   1.000  C
  C109     1.0000 0.18502  0.16040  0.91654  Biso   1.000  C
  C110     1.0000 0.33869  0.43630  0.77783  Biso   1.000  C
  H102     1.0000 0.35800  0.52930  0.77580  Biso   1.000  H
  C111     1.0000 0.34027  0.40690  0.71930  Biso   1.000  C
  C112     1.0000 0.29501  0.24970  0.81078  Biso   1.000  C
  C113     1.0000 0.32476  0.38690  0.80732  Biso   1.000  C
  H103     1.0000 0.33510  0.44490  0.82500  Biso   1.000  H
  N4       1.0000 0.30979  0.62830  0.64778  Biso   1.000  N
  C114     1.0000 0.28481  0.29930  0.86545  Biso   1.000  C
  H104     1.0000 0.31680  0.31030  0.87100  Biso   1.000  H
  H105     1.0000 0.27290  0.41100  0.86060  Biso   1.000  H
  C115     1.0000 0.32449  0.34950  0.75089  Biso   1.000  C
  C116     1.0000 0.21043  0.22440  0.89107  Biso   1.000  C
  C117     1.0000 0.18684  0.29450  0.86258  Biso   1.000  C
  H106     1.0000 0.20930  0.33160  0.84760  Biso   1.000  H
  H107     1.0000 0.16810  0.20810  0.85330  Biso   1.000  H
  H108     1.0000 0.16800  0.38860  0.86860  Biso   1.000  H
  C118     1.0000 0.33289  0.14740  0.91940  Biso   1.000  C
  H109     1.0000 0.34480  0.19910  0.90070  Biso   1.000  H
  H110     1.0000 0.34320  0.20920  0.93750  Biso   1.000  H
  H111     1.0000 0.34340  0.03250  0.92070  Biso   1.000  H
  C119     1.0000 0.29467  0.21270  0.75476  Biso   1.000  C
  H112     1.0000 0.28450  0.15400  0.73720  Biso   1.000  H
  C120     1.0000 0.28971  0.88210  0.03296  Biso   1.000  C
  H113     1.0000 0.27440  0.80740  0.01970  Biso   1.000  H
  C121     1.0000 0.32445  0.94250  0.08344  Biso   1.000  C
  C122     1.0000 0.30203  0.83310  0.06292  Biso   1.000  C
  H114     1.0000 0.29520  0.72390  0.06960  Biso   1.000  H
  C123     1.0000 0.33586  0.10170  0.07270  Biso   1.000  C
  H115     1.0000 0.35170  0.17520  0.08580  Biso   1.000  H
  C124     1.0000 0.28018  0.16340  0.78408  Biso   1.000  C
  H116     1.0000 0.26040  0.07200  0.78610  Biso   1.000  H
  C125     1.0000 0.13410  0.16890  0.91497  Biso   1.000  C
  H117     1.0000 0.12450  0.28010  0.90790  Biso   1.000  H
  H118     1.0000 0.12110  0.14830  0.93560  Biso   1.000  H
  C126     1.0000 0.18039  0.02930  0.97072  Biso   1.000  C
  H119     1.0000 0.14830  0.04380  0.96680  Biso   1.000  H
  H120     1.0000 0.18680  0.91160  0.97430  Biso   1.000  H
  H121     1.0000 0.18900  0.09350  0.98890  Biso   1.000  H
  C127     1.0000 0.32411  0.15430  0.04261  Biso   1.000  C
  H122     1.0000 0.33200  0.26220  0.03580  Biso   1.000  H
  C128     1.0000 0.28270  0.60720  0.61957  Biso   1.000  C
  H123     1.0000 0.26470  0.70720  0.61610  Biso   1.000  H
  H124     1.0000 0.30260  0.58930  0.60190  Biso   1.000  H
  H125     1.0000 0.26290  0.51130  0.62200  Biso   1.000  H
  C129     1.0000 0.05950  0.92740  0.86533  Biso   1.000  C
  H126     1.0000 0.08030  0.85980  0.85460  Biso   1.000  H
  C130     1.0000 0.07256  0.03590  0.88795  Biso   1.000  C
  C131     1.0000 0.28039  0.68670  0.67429  Biso   1.000  C
  H127     1.0000 0.26330  0.78440  0.66790  Biso   1.000  H
  H128     1.0000 0.25970  0.59770  0.68010  Biso   1.000  H
  H129     1.0000 0.29930  0.71540  0.69190  Biso   1.000  H
  C132     1.0000 0.00970  0.92260  0.85869  Biso   1.000  C
  H130     1.0000 0.99830  0.85160  0.84310  Biso   1.000  H
  C133     1.0000 0.98069  0.02360  0.87567  Biso   1.000  C
  C134     1.0000 0.04078  0.13260  0.90299  Biso   1.000  C
  H131     1.0000 0.05080  0.21150  0.91770  Biso   1.000  H
  C135     1.0000 0.99450  0.11900  0.89750  Biso   1.000  C
  H132     1.0000 0.97370  0.17920  0.90970  Biso   1.000  H
  C136     1.0000 0.33584  0.88560  0.11611  Biso   1.000  C
  O28      1.0000 0.33126  0.73100  0.12159  Biso   1.000  O
  Zn5      1.0000 0.65062  0.58337  0.34330  Biso   1.000  Zn
  O29      1.0000 0.71183  0.89050  0.00586  Biso   1.000  O
  O30      1.0000 0.72030  0.81100  0.16132  Biso   1.000  O
  O31      1.0000 0.67103  0.68700  0.30395  Biso   1.000  O
  O32      1.0000 0.88110  0.95840  0.10683  Biso   1.000  O
  C137     1.0000 0.74152  0.77820  0.10759  Biso   1.000  C
  O33      1.0000 0.65108  0.00400  0.86454  Biso   1.000  O
  C138     1.0000 0.74462  0.91890  0.05692  Biso   1.000  C
  O34      1.0000 0.63665  0.46340  0.28359  Biso   1.000  O
  C139     1.0000 0.69947  0.95430  0.97724  Biso   1.000  C
  C140     1.0000 0.72193  0.00960  0.03025  Biso   1.000  C
  H133     1.0000 0.69400  0.06260  0.03750  Biso   1.000  H
  H134     1.0000 0.74200  0.09740  0.02230  Biso   1.000  H
  C141     1.0000 0.79276  0.90940  0.05737  Biso   1.000  C
  C142     1.0000 0.71876  0.85030  0.08166  Biso   1.000  C
  C143     1.0000 0.81498  0.83960  0.08346  Biso   1.000  C
  C144     1.0000 0.66131  0.56370  0.22217  Biso   1.000  C
  H135     1.0000 0.64200  0.47070  0.22420  Biso   1.000  H
  C145     1.0000 0.65973  0.59310  0.28070  Biso   1.000  C
  C146     1.0000 0.70499  0.75030  0.18922  Biso   1.000  C
  C147     1.0000 0.67524  0.61310  0.19268  Biso   1.000  C
  H136     1.0000 0.66490  0.55510  0.17500  Biso   1.000  H
  N5       1.0000 0.69021  0.37170  0.35222  Biso   1.000  N
  C148     1.0000 0.71519  0.70070  0.13455  Biso   1.000  C
  H137     1.0000 0.68320  0.68970  0.12900  Biso   1.000  H
  H138     1.0000 0.72710  0.58900  0.13940  Biso   1.000  H
  C149     1.0000 0.67551  0.65050  0.24911  Biso   1.000  C
  C150     1.0000 0.78957  0.77560  0.10893  Biso   1.000  C
  C151     1.0000 0.81316  0.70550  0.13742  Biso   1.000  C
  H139     1.0000 0.79070  0.66840  0.15240  Biso   1.000  H
  H140     1.0000 0.83190  0.79190  0.14670  Biso   1.000  H
  H141     1.0000 0.83200  0.61140  0.13140  Biso   1.000  H
  C152     1.0000 0.66711  0.85260  0.08060  Biso   1.000  C
  H142     1.0000 0.65520  0.80090  0.09930  Biso   1.000  H
  H143     1.0000 0.65680  0.79080  0.06250  Biso   1.000  H
  H144     1.0000 0.65660  0.96750  0.07930  Biso   1.000  H
  C153     1.0000 0.70533  0.78730  0.24524  Biso   1.000  C
  H145     1.0000 0.71550  0.84600  0.26280  Biso   1.000  H
  C154     1.0000 0.71029  0.11790  0.96704  Biso   1.000  C
  H146     1.0000 0.72560  0.19260  0.98030  Biso   1.000  H
  C155     1.0000 0.67555  0.05750  0.91656  Biso   1.000  C
  C156     1.0000 0.69797  0.16690  0.93708  Biso   1.000  C
  H147     1.0000 0.70480  0.27610  0.93040  Biso   1.000  H
  C157     1.0000 0.66414  0.89830  0.92730  Biso   1.000  C
  H148     1.0000 0.64830  0.82480  0.91420  Biso   1.000  H
  C158     1.0000 0.71982  0.83660  0.21592  Biso   1.000  C
  H149     1.0000 0.73960  0.92800  0.21390  Biso   1.000  H
  C159     1.0000 0.86590  0.83110  0.08503  Biso   1.000  C
  H150     1.0000 0.87550  0.71990  0.09210  Biso   1.000  H
  H151     1.0000 0.87890  0.85170  0.06440  Biso   1.000  H
  C160     1.0000 0.81961  0.97070  0.02928  Biso   1.000  C
  H152     1.0000 0.85170  0.95620  0.03320  Biso   1.000  H
  H153     1.0000 0.81320  0.08840  0.02570  Biso   1.000  H
  H154     1.0000 0.81100  0.90650  0.01110  Biso   1.000  H
  C161     1.0000 0.67589  0.84570  0.95739  Biso   1.000  C
  H155     1.0000 0.66800  0.73780  0.96420  Biso   1.000  H
  C162     1.0000 0.71730  0.39280  0.38043  Biso   1.000  C
  H156     1.0000 0.73530  0.29280  0.38390  Biso   1.000  H
  H157     1.0000 0.69740  0.41070  0.39810  Biso   1.000  H
  H158     1.0000 0.73710  0.48870  0.37800  Biso   1.000  H
  C163     1.0000 0.94050  0.07260  0.13467  Biso   1.000  C
  H159     1.0000 0.91970  0.14020  0.14540  Biso   1.000  H
  C164     1.0000 0.92744  0.96410  0.11205  Biso   1.000  C
  C165     1.0000 0.71961  0.31330  0.32571  Biso   1.000  C
  H160     1.0000 0.73670  0.21560  0.33210  Biso   1.000  H
  H161     1.0000 0.74030  0.40230  0.31990  Biso   1.000  H
  H162     1.0000 0.70070  0.28460  0.30810  Biso   1.000  H
  C166     1.0000 0.99030  0.07740  0.14131  Biso   1.000  C
  H163     1.0000 0.00170  0.14840  0.15690  Biso   1.000  H
  C167     1.0000 0.01931  0.97640  0.12433  Biso   1.000  C
  C168     1.0000 0.95922  0.86740  0.09701  Biso   1.000  C
  H164     1.0000 0.94920  0.78850  0.08230  Biso   1.000  H
  C169     1.0000 0.00550  0.88100  0.10250  Biso   1.000  C
  H165     1.0000 0.02630  0.82080  0.09030  Biso   1.000  H
  C170     1.0000 0.66416  0.11440  0.88389  Biso   1.000  C
  O35      1.0000 0.66874  0.26900  0.87841  Biso   1.000  O
  Zn6      1.0000 0.65062  0.41663  0.84330  Biso   1.000  Zn
  O36      1.0000 0.71183  0.10950  0.50586  Biso   1.000  O
  O37      1.0000 0.72030  0.18900  0.66132  Biso   1.000  O
  O38      1.0000 0.67103  0.31300  0.80395  Biso   1.000  O
  O39      1.0000 0.88110  0.04160  0.60683  Biso   1.000  O
  C171     1.0000 0.74152  0.22180  0.60759  Biso   1.000  C
  O40      1.0000 0.65108  0.99600  0.36454  Biso   1.000  O
  C172     1.0000 0.74462  0.08110  0.55692  Biso   1.000  C
  O41      1.0000 0.63665  0.53660  0.78359  Biso   1.000  O
  C173     1.0000 0.69947  0.04570  0.47724  Biso   1.000  C
  C174     1.0000 0.72193  0.99040  0.53025  Biso   1.000  C
  H166     1.0000 0.69400  0.93740  0.53750  Biso   1.000  H
  H167     1.0000 0.74200  0.90260  0.52230  Biso   1.000  H
  C175     1.0000 0.79276  0.09060  0.55737  Biso   1.000  C
  C176     1.0000 0.71876  0.14970  0.58166  Biso   1.000  C
  C177     1.0000 0.81498  0.16040  0.58346  Biso   1.000  C
  C178     1.0000 0.66131  0.43630  0.72217  Biso   1.000  C
  H168     1.0000 0.64200  0.52930  0.72420  Biso   1.000  H
  C179     1.0000 0.65973  0.40690  0.78070  Biso   1.000  C
  C180     1.0000 0.70499  0.24970  0.68922  Biso   1.000  C
  C181     1.0000 0.67524  0.38690  0.69268  Biso   1.000  C
  H169     1.0000 0.66490  0.44490  0.67500  Biso   1.000  H
  N6       1.0000 0.69021  0.62830  0.85222  Biso   1.000  N
  C182     1.0000 0.71519  0.29930  0.63455  Biso   1.000  C
  H170     1.0000 0.68320  0.31030  0.62900  Biso   1.000  H
  H171     1.0000 0.72710  0.41100  0.63940  Biso   1.000  H
  C183     1.0000 0.67551  0.34950  0.74911  Biso   1.000  C
  C184     1.0000 0.78957  0.22440  0.60893  Biso   1.000  C
  C185     1.0000 0.81316  0.29450  0.63742  Biso   1.000  C
  H172     1.0000 0.79070  0.33160  0.65240  Biso   1.000  H
  H173     1.0000 0.83190  0.20810  0.64670  Biso   1.000  H
  H174     1.0000 0.83200  0.38860  0.63140  Biso   1.000  H
  C186     1.0000 0.66711  0.14740  0.58060  Biso   1.000  C
  H175     1.0000 0.65520  0.19910  0.59930  Biso   1.000  H
  H176     1.0000 0.65680  0.20920  0.56250  Biso   1.000  H
  H177     1.0000 0.65660  0.03250  0.57930  Biso   1.000  H
  C187     1.0000 0.70533  0.21270  0.74524  Biso   1.000  C
  H178     1.0000 0.71550  0.15400  0.76280  Biso   1.000  H
  C188     1.0000 0.71029  0.88210  0.46704  Biso   1.000  C
  H179     1.0000 0.72560  0.80740  0.48030  Biso   1.000  H
  C189     1.0000 0.67555  0.94250  0.41656  Biso   1.000  C
  C190     1.0000 0.69797  0.83310  0.43708  Biso   1.000  C
  H180     1.0000 0.70480  0.72390  0.43040  Biso   1.000  H
  C191     1.0000 0.66414  0.10170  0.42730  Biso   1.000  C
  H181     1.0000 0.64830  0.17520  0.41420  Biso   1.000  H
  C192     1.0000 0.71982  0.16340  0.71592  Biso   1.000  C
  H182     1.0000 0.73960  0.07200  0.71390  Biso   1.000  H
  C193     1.0000 0.86590  0.16890  0.58503  Biso   1.000  C
  H183     1.0000 0.87550  0.28010  0.59210  Biso   1.000  H
  H184     1.0000 0.87890  0.14830  0.56440  Biso   1.000  H
  C194     1.0000 0.81961  0.02930  0.52928  Biso   1.000  C
  H185     1.0000 0.85170  0.04380  0.53320  Biso   1.000  H
  H186     1.0000 0.81320  0.91160  0.52570  Biso   1.000  H
  H187     1.0000 0.81100  0.09350  0.51110  Biso   1.000  H
  C195     1.0000 0.67589  0.15430  0.45739  Biso   1.000  C
  H188     1.0000 0.66800  0.26220  0.46420  Biso   1.000  H
  C196     1.0000 0.71730  0.60720  0.88043  Biso   1.000  C
  H189     1.0000 0.73530  0.70720  0.88390  Biso   1.000  H
  H190     1.0000 0.69740  0.58930  0.89810  Biso   1.000  H
  H191     1.0000 0.73710  0.51130  0.87800  Biso   1.000  H
  C197     1.0000 0.94050  0.92740  0.63467  Biso   1.000  C
  H192     1.0000 0.91970  0.85980  0.64540  Biso   1.000  H
  C198     1.0000 0.92744  0.03590  0.61205  Biso   1.000  C
  C199     1.0000 0.71961  0.68670  0.82571  Biso   1.000  C
  H193     1.0000 0.73670  0.78440  0.83210  Biso   1.000  H
  H194     1.0000 0.74030  0.59770  0.81990  Biso   1.000  H
  H195     1.0000 0.70070  0.71540  0.80810  Biso   1.000  H
  C200     1.0000 0.99030  0.92260  0.64131  Biso   1.000  C
  H196     1.0000 0.00170  0.85160  0.65690  Biso   1.000  H
  C201     1.0000 0.01931  0.02360  0.62433  Biso   1.000  C
  C202     1.0000 0.95922  0.13260  0.59701  Biso   1.000  C
  H197     1.0000 0.94920  0.21150  0.58230  Biso   1.000  H
  C203     1.0000 0.00550  0.11900  0.60250  Biso   1.000  C
  H198     1.0000 0.02630  0.17920  0.59030  Biso   1.000  H
  C204     1.0000 0.66416  0.88560  0.38389  Biso   1.000  C
  O42      1.0000 0.66874  0.73100  0.37841  Biso   1.000  O
  Zn7      1.0000 0.15062  0.91663  0.65670  Biso   1.000  Zn
  O43      1.0000 0.21183  0.60950  0.99414  Biso   1.000  O
  O44      1.0000 0.22030  0.68900  0.83868  Biso   1.000  O
  O45      1.0000 0.17103  0.81300  0.69605  Biso   1.000  O
  O46      1.0000 0.38110  0.54160  0.89317  Biso   1.000  O
  C205     1.0000 0.24152  0.72180  0.89241  Biso   1.000  C
  O47      1.0000 0.15108  0.49600  0.13546  Biso   1.000  O
  C206     1.0000 0.24462  0.58110  0.94308  Biso   1.000  C
  O48      1.0000 0.13665  0.03660  0.71641  Biso   1.000  O
  C207     1.0000 0.19947  0.54570  0.02276  Biso   1.000  C
  C208     1.0000 0.22193  0.49040  0.96975  Biso   1.000  C
  H199     1.0000 0.19400  0.43740  0.96250  Biso   1.000  H
  H200     1.0000 0.24200  0.40260  0.97770  Biso   1.000  H
  C209     1.0000 0.29276  0.59060  0.94263  Biso   1.000  C
  C210     1.0000 0.21876  0.64970  0.91834  Biso   1.000  C
  C211     1.0000 0.31498  0.66040  0.91654  Biso   1.000  C
  C212     1.0000 0.16131  0.93630  0.77783  Biso   1.000  C
  H201     1.0000 0.14200  0.02930  0.77580  Biso   1.000  H
  C213     1.0000 0.15973  0.90690  0.71930  Biso   1.000  C
  C214     1.0000 0.20499  0.74970  0.81078  Biso   1.000  C
  C215     1.0000 0.17524  0.88690  0.80732  Biso   1.000  C
  H202     1.0000 0.16490  0.94490  0.82500  Biso   1.000  H
  N7       1.0000 0.19021  0.12830  0.64778  Biso   1.000  N
  C216     1.0000 0.21519  0.79930  0.86545  Biso   1.000  C
  H203     1.0000 0.18320  0.81030  0.87100  Biso   1.000  H
  H204     1.0000 0.22710  0.91100  0.86060  Biso   1.000  H
  C217     1.0000 0.17551  0.84950  0.75089  Biso   1.000  C
  C218     1.0000 0.28957  0.72440  0.89107  Biso   1.000  C
  C219     1.0000 0.31316  0.79450  0.86258  Biso   1.000  C
  H205     1.0000 0.29070  0.83160  0.84760  Biso   1.000  H
  H206     1.0000 0.33190  0.70810  0.85330  Biso   1.000  H
  H207     1.0000 0.33200  0.88860  0.86860  Biso   1.000  H
  C220     1.0000 0.16711  0.64740  0.91940  Biso   1.000  C
  H208     1.0000 0.15520  0.69910  0.90070  Biso   1.000  H
  H209     1.0000 0.15680  0.70920  0.93750  Biso   1.000  H
  H210     1.0000 0.15660  0.53250  0.92070  Biso   1.000  H
  C221     1.0000 0.20533  0.71270  0.75476  Biso   1.000  C
  H211     1.0000 0.21550  0.65400  0.73720  Biso   1.000  H
  C222     1.0000 0.21029  0.38210  0.03296  Biso   1.000  C
  H212     1.0000 0.22560  0.30740  0.01970  Biso   1.000  H
  C223     1.0000 0.17555  0.44250  0.08344  Biso   1.000  C
  C224     1.0000 0.19797  0.33310  0.06292  Biso   1.000  C
  H213     1.0000 0.20480  0.22390  0.06960  Biso   1.000  H
  C225     1.0000 0.16414  0.60170  0.07270  Biso   1.000  C
  H214     1.0000 0.14830  0.67520  0.08580  Biso   1.000  H
  C226     1.0000 0.21982  0.66340  0.78408  Biso   1.000  C
  H215     1.0000 0.23960  0.57200  0.78610  Biso   1.000  H
  C227     1.0000 0.36590  0.66890  0.91497  Biso   1.000  C
  H216     1.0000 0.37550  0.78010  0.90790  Biso   1.000  H
  H217     1.0000 0.37890  0.64830  0.93560  Biso   1.000  H
  C228     1.0000 0.31961  0.52930  0.97072  Biso   1.000  C
  H218     1.0000 0.35170  0.54380  0.96680  Biso   1.000  H
  H219     1.0000 0.31320  0.41160  0.97430  Biso   1.000  H
  H220     1.0000 0.31100  0.59350  0.98890  Biso   1.000  H
  C229     1.0000 0.17589  0.65430  0.04261  Biso   1.000  C
  H221     1.0000 0.16800  0.76220  0.03580  Biso   1.000  H
  C230     1.0000 0.21730  0.10720  0.61957  Biso   1.000  C
  H222     1.0000 0.23530  0.20720  0.61610  Biso   1.000  H
  H223     1.0000 0.19740  0.08930  0.60190  Biso   1.000  H
  H224     1.0000 0.23710  0.01130  0.62200  Biso   1.000  H
  C231     1.0000 0.44050  0.42740  0.86533  Biso   1.000  C
  H225     1.0000 0.41970  0.35980  0.85460  Biso   1.000  H
  C232     1.0000 0.42744  0.53590  0.88795  Biso   1.000  C
  C233     1.0000 0.21961  0.18670  0.67429  Biso   1.000  C
  H226     1.0000 0.23670  0.28440  0.66790  Biso   1.000  H
  H227     1.0000 0.24030  0.09770  0.68010  Biso   1.000  H
  H228     1.0000 0.20070  0.21540  0.69190  Biso   1.000  H
  C234     1.0000 0.49030  0.42260  0.85869  Biso   1.000  C
  H229     1.0000 0.50170  0.35160  0.84310  Biso   1.000  H
  C235     1.0000 0.51931  0.52360  0.87567  Biso   1.000  C
  C236     1.0000 0.45922  0.63260  0.90299  Biso   1.000  C
  H230     1.0000 0.44920  0.71150  0.91770  Biso   1.000  H
  C237     1.0000 0.50550  0.61900  0.89750  Biso   1.000  C
  H231     1.0000 0.52630  0.67920  0.90970  Biso   1.000  H
  C238     1.0000 0.16416  0.38560  0.11611  Biso   1.000  C
  O49      1.0000 0.16874  0.23100  0.12159  Biso   1.000  O
  Zn8      1.0000 0.15062  0.08337  0.15670  Biso   1.000  Zn
  O50      1.0000 0.21183  0.39050  0.49414  Biso   1.000  O
  O51      1.0000 0.22030  0.31100  0.33868  Biso   1.000  O
  O52      1.0000 0.17103  0.18700  0.19605  Biso   1.000  O
  O53      1.0000 0.38110  0.45840  0.39317  Biso   1.000  O
  C239     1.0000 0.24152  0.27820  0.39241  Biso   1.000  C
  O54      1.0000 0.15108  0.50400  0.63546  Biso   1.000  O
  C240     1.0000 0.24462  0.41890  0.44308  Biso   1.000  C
  O55      1.0000 0.13665  0.96340  0.21641  Biso   1.000  O
  C241     1.0000 0.19947  0.45430  0.52276  Biso   1.000  C
  C242     1.0000 0.22193  0.50960  0.46975  Biso   1.000  C
  H232     1.0000 0.19400  0.56260  0.46250  Biso   1.000  H
  H233     1.0000 0.24200  0.59740  0.47770  Biso   1.000  H
  C243     1.0000 0.29276  0.40940  0.44263  Biso   1.000  C
  C244     1.0000 0.21876  0.35030  0.41834  Biso   1.000  C
  C245     1.0000 0.31498  0.33960  0.41654  Biso   1.000  C
  C246     1.0000 0.16131  0.06370  0.27783  Biso   1.000  C
  H234     1.0000 0.14200  0.97070  0.27580  Biso   1.000  H
  C247     1.0000 0.15973  0.09310  0.21930  Biso   1.000  C
  C248     1.0000 0.20499  0.25030  0.31078  Biso   1.000  C
  C249     1.0000 0.17524  0.11310  0.30732  Biso   1.000  C
  H235     1.0000 0.16490  0.05510  0.32500  Biso   1.000  H
  N8       1.0000 0.19021  0.87170  0.14778  Biso   1.000  N
  C250     1.0000 0.21519  0.20070  0.36545  Biso   1.000  C
  H236     1.0000 0.18320  0.18970  0.37100  Biso   1.000  H
  H237     1.0000 0.22710  0.08900  0.36060  Biso   1.000  H
  C251     1.0000 0.17551  0.15050  0.25089  Biso   1.000  C
  C252     1.0000 0.28957  0.27560  0.39107  Biso   1.000  C
  C253     1.0000 0.31316  0.20550  0.36258  Biso   1.000  C
  H238     1.0000 0.29070  0.16840  0.34760  Biso   1.000  H
  H239     1.0000 0.33190  0.29190  0.35330  Biso   1.000  H
  H240     1.0000 0.33200  0.11140  0.36860  Biso   1.000  H
  C254     1.0000 0.16711  0.35260  0.41940  Biso   1.000  C
  H241     1.0000 0.15520  0.30090  0.40070  Biso   1.000  H
  H242     1.0000 0.15680  0.29080  0.43750  Biso   1.000  H
  H243     1.0000 0.15660  0.46750  0.42070  Biso   1.000  H
  C255     1.0000 0.20533  0.28730  0.25476  Biso   1.000  C
  H244     1.0000 0.21550  0.34600  0.23720  Biso   1.000  H
  C256     1.0000 0.21029  0.61790  0.53296  Biso   1.000  C
  H245     1.0000 0.22560  0.69260  0.51970  Biso   1.000  H
  C257     1.0000 0.17555  0.55750  0.58344  Biso   1.000  C
  C258     1.0000 0.19797  0.66690  0.56292  Biso   1.000  C
  H246     1.0000 0.20480  0.77610  0.56960  Biso   1.000  H
  C259     1.0000 0.16414  0.39830  0.57270  Biso   1.000  C
  H247     1.0000 0.14830  0.32480  0.58580  Biso   1.000  H
  C260     1.0000 0.21982  0.33660  0.28408  Biso   1.000  C
  H248     1.0000 0.23960  0.42800  0.28610  Biso   1.000  H
  C261     1.0000 0.36590  0.33110  0.41497  Biso   1.000  C
  H249     1.0000 0.37550  0.21990  0.40790  Biso   1.000  H
  H250     1.0000 0.37890  0.35170  0.43560  Biso   1.000  H
  C262     1.0000 0.31961  0.47070  0.47072  Biso   1.000  C
  H251     1.0000 0.35170  0.45620  0.46680  Biso   1.000  H
  H252     1.0000 0.31320  0.58840  0.47430  Biso   1.000  H
  H253     1.0000 0.31100  0.40650  0.48890  Biso   1.000  H
  C263     1.0000 0.17589  0.34570  0.54261  Biso   1.000  C
  H254     1.0000 0.16800  0.23780  0.53580  Biso   1.000  H
  C264     1.0000 0.21730  0.89280  0.11957  Biso   1.000  C
  H255     1.0000 0.23530  0.79280  0.11610  Biso   1.000  H
  H256     1.0000 0.19740  0.91070  0.10190  Biso   1.000  H
  H257     1.0000 0.23710  0.98870  0.12200  Biso   1.000  H
  C265     1.0000 0.44050  0.57260  0.36533  Biso   1.000  C
  H258     1.0000 0.41970  0.64020  0.35460  Biso   1.000  H
  C266     1.0000 0.42744  0.46410  0.38795  Biso   1.000  C
  C267     1.0000 0.21961  0.81330  0.17429  Biso   1.000  C
  H259     1.0000 0.23670  0.71560  0.16790  Biso   1.000  H
  H260     1.0000 0.24030  0.90230  0.18010  Biso   1.000  H
  H261     1.0000 0.20070  0.78460  0.19190  Biso   1.000  H
  C268     1.0000 0.49030  0.57740  0.35869  Biso   1.000  C
  H262     1.0000 0.50170  0.64840  0.34310  Biso   1.000  H
  C269     1.0000 0.51931  0.47640  0.37567  Biso   1.000  C
  C270     1.0000 0.45922  0.36740  0.40299  Biso   1.000  C
  H263     1.0000 0.44920  0.28850  0.41770  Biso   1.000  H
  C271     1.0000 0.50550  0.38100  0.39750  Biso   1.000  C
  H264     1.0000 0.52630  0.32080  0.40970  Biso   1.000  H
  C272     1.0000 0.16416  0.61440  0.61611  Biso   1.000  C
  O56      1.0000 0.16874  0.76900  0.62159  Biso   1.000  O
