data_image0
_cell_length_a       11.962
_cell_length_b       11.315
_cell_length_c       36.656
_cell_angle_alpha    90
_cell_angle_beta     90
_cell_angle_gamma    90

_symmetry_space_group_name_H-M    "P 1"
_symmetry_int_tables_number       1

loop_
  _symmetry_equiv_pos_as_xyz
  'x, y, z'

loop_
  _atom_site_label
  _atom_site_occupancy
  _atom_site_fract_x
  _atom_site_fract_y
  _atom_site_fract_z
  _atom_site_thermal_displace_type
  _atom_site_B_iso_or_equiv
  _atom_site_type_symbol
  Ag1      1.0000 0.12458  0.99744  0.47729  Biso   1.000  Ag
  C1       1.0000 0.10980  0.78850  0.41927  Biso   1.000  C
  H1       1.0000 0.04360  0.83150  0.41170  Biso   1.000  H
  H2       1.0000 0.17410  0.82510  0.40780  Biso   1.000  H
  C2       1.0000 0.00380  0.61080  0.42509  Biso   1.000  C
  H3       1.0000 0.93640  0.65220  0.41780  Biso   1.000  H
  H4       1.0000 0.99710  0.52930  0.41710  Biso   1.000  H
  C3       1.0000 0.02280  0.73710  0.47627  Biso   1.000  C
  H5       1.0000 0.02940  0.74030  0.50260  Biso   1.000  H
  H6       1.0000 0.95540  0.77920  0.46940  Biso   1.000  H
  C4       1.0000 0.22240  0.72970  0.47018  Biso   1.000  C
  H7       1.0000 0.28750  0.76630  0.45920  Biso   1.000  H
  H8       1.0000 0.23120  0.73340  0.49650  Biso   1.000  H
  C5       1.0000 0.11500  0.55200  0.47536  Biso   1.000  C
  H9       1.0000 0.10930  0.46990  0.46800  Biso   1.000  H
  H10      1.0000 0.12210  0.55400  0.50170  Biso   1.000  H
  C6       1.0000 0.20220  0.60180  0.41875  Biso   1.000  C
  H11      1.0000 0.19750  0.52020  0.41070  Biso   1.000  H
  H12      1.0000 0.26710  0.63720  0.40730  Biso   1.000  H
  N1       1.0000 0.12130  0.79670  0.45954  Biso   1.000  N
  N2       1.0000 0.01320  0.61380  0.46479  Biso   1.000  N
  N3       1.0000 0.10100  0.66540  0.40703  Biso   1.000  N
  N4       1.0000 0.21650  0.60460  0.45873  Biso   1.000  N
  Ag2      1.0000 0.37542  0.49744  0.47729  Biso   1.000  Ag
  C7       1.0000 0.39020  0.28850  0.41927  Biso   1.000  C
  H13      1.0000 0.45640  0.33150  0.41170  Biso   1.000  H
  H14      1.0000 0.32590  0.32510  0.40780  Biso   1.000  H
  C8       1.0000 0.49620  0.11080  0.42509  Biso   1.000  C
  H15      1.0000 0.56360  0.15220  0.41780  Biso   1.000  H
  H16      1.0000 0.50290  0.02930  0.41710  Biso   1.000  H
  C9       1.0000 0.47720  0.23710  0.47627  Biso   1.000  C
  H17      1.0000 0.47060  0.24030  0.50260  Biso   1.000  H
  H18      1.0000 0.54460  0.27920  0.46940  Biso   1.000  H
  C10      1.0000 0.27760  0.22970  0.47018  Biso   1.000  C
  H19      1.0000 0.21250  0.26630  0.45920  Biso   1.000  H
  H20      1.0000 0.26880  0.23340  0.49650  Biso   1.000  H
  C11      1.0000 0.38500  0.05200  0.47536  Biso   1.000  C
  H21      1.0000 0.39070  0.96990  0.46800  Biso   1.000  H
  H22      1.0000 0.37790  0.05400  0.50170  Biso   1.000  H
  C12      1.0000 0.29780  0.10180  0.41875  Biso   1.000  C
  H23      1.0000 0.30250  0.02020  0.41070  Biso   1.000  H
  H24      1.0000 0.23290  0.13720  0.40730  Biso   1.000  H
  N5       1.0000 0.37870  0.29670  0.45954  Biso   1.000  N
  N6       1.0000 0.48680  0.11380  0.46479  Biso   1.000  N
  N7       1.0000 0.39900  0.16540  0.40703  Biso   1.000  N
  N8       1.0000 0.28350  0.10460  0.45873  Biso   1.000  N
  Ag3      1.0000 0.62458  0.50256  0.52271  Biso   1.000  Ag
  C13      1.0000 0.60980  0.71150  0.58073  Biso   1.000  C
  H25      1.0000 0.54360  0.66850  0.58830  Biso   1.000  H
  H26      1.0000 0.67410  0.67490  0.59220  Biso   1.000  H
  C14      1.0000 0.50380  0.88920  0.57491  Biso   1.000  C
  H27      1.0000 0.43640  0.84780  0.58220  Biso   1.000  H
  H28      1.0000 0.49710  0.97070  0.58290  Biso   1.000  H
  C15      1.0000 0.52280  0.76290  0.52373  Biso   1.000  C
  H29      1.0000 0.52940  0.75970  0.49740  Biso   1.000  H
  H30      1.0000 0.45540  0.72080  0.53060  Biso   1.000  H
  C16      1.0000 0.72240  0.77030  0.52982  Biso   1.000  C
  H31      1.0000 0.78750  0.73370  0.54080  Biso   1.000  H
  H32      1.0000 0.73120  0.76660  0.50350  Biso   1.000  H
  C17      1.0000 0.61500  0.94800  0.52464  Biso   1.000  C
  H33      1.0000 0.60930  0.03010  0.53200  Biso   1.000  H
  H34      1.0000 0.62210  0.94600  0.49830  Biso   1.000  H
  C18      1.0000 0.70220  0.89820  0.58125  Biso   1.000  C
  H35      1.0000 0.69750  0.97980  0.58930  Biso   1.000  H
  H36      1.0000 0.76710  0.86280  0.59270  Biso   1.000  H
  N9       1.0000 0.62130  0.70330  0.54046  Biso   1.000  N
  N10      1.0000 0.51320  0.88620  0.53521  Biso   1.000  N
  N11      1.0000 0.60100  0.83460  0.59297  Biso   1.000  N
  N12      1.0000 0.71650  0.89540  0.54127  Biso   1.000  N
  Ag4      1.0000 0.87542  0.00256  0.52271  Biso   1.000  Ag
  C19      1.0000 0.89020  0.21150  0.58073  Biso   1.000  C
  H37      1.0000 0.95640  0.16850  0.58830  Biso   1.000  H
  H38      1.0000 0.82590  0.17490  0.59220  Biso   1.000  H
  C20      1.0000 0.99620  0.38920  0.57491  Biso   1.000  C
  H39      1.0000 0.06360  0.34780  0.58220  Biso   1.000  H
  H40      1.0000 0.00290  0.47070  0.58290  Biso   1.000  H
  C21      1.0000 0.97720  0.26290  0.52373  Biso   1.000  C
  H41      1.0000 0.97060  0.25970  0.49740  Biso   1.000  H
  H42      1.0000 0.04460  0.22080  0.53060  Biso   1.000  H
  C22      1.0000 0.77760  0.27030  0.52982  Biso   1.000  C
  H43      1.0000 0.71250  0.23370  0.54080  Biso   1.000  H
  H44      1.0000 0.76880  0.26660  0.50350  Biso   1.000  H
  C23      1.0000 0.88500  0.44800  0.52464  Biso   1.000  C
  H45      1.0000 0.89070  0.53010  0.53200  Biso   1.000  H
  H46      1.0000 0.87790  0.44600  0.49830  Biso   1.000  H
  C24      1.0000 0.79780  0.39820  0.58125  Biso   1.000  C
  H47      1.0000 0.80250  0.47980  0.58930  Biso   1.000  H
  H48      1.0000 0.73290  0.36280  0.59270  Biso   1.000  H
  N13      1.0000 0.87870  0.20330  0.54046  Biso   1.000  N
  N14      1.0000 0.98680  0.38620  0.53521  Biso   1.000  N
  N15      1.0000 0.89900  0.33460  0.59297  Biso   1.000  N
  N16      1.0000 0.78350  0.39540  0.54127  Biso   1.000  N
  Ag5      1.0000 0.37542  0.00256  0.97729  Biso   1.000  Ag
  C25      1.0000 0.39020  0.21150  0.91927  Biso   1.000  C
  H49      1.0000 0.45640  0.16850  0.91170  Biso   1.000  H
  H50      1.0000 0.32590  0.17490  0.90780  Biso   1.000  H
  C26      1.0000 0.49620  0.38920  0.92509  Biso   1.000  C
  H51      1.0000 0.56360  0.34780  0.91780  Biso   1.000  H
  H52      1.0000 0.50290  0.47070  0.91710  Biso   1.000  H
  C27      1.0000 0.47720  0.26290  0.97627  Biso   1.000  C
  H53      1.0000 0.47060  0.25970  0.00260  Biso   1.000  H
  H54      1.0000 0.54460  0.22080  0.96940  Biso   1.000  H
  C28      1.0000 0.27760  0.27030  0.97018  Biso   1.000  C
  H55      1.0000 0.21250  0.23370  0.95920  Biso   1.000  H
  H56      1.0000 0.26880  0.26660  0.99650  Biso   1.000  H
  C29      1.0000 0.38500  0.44800  0.97536  Biso   1.000  C
  H57      1.0000 0.39070  0.53010  0.96800  Biso   1.000  H
  H58      1.0000 0.37790  0.44600  0.00170  Biso   1.000  H
  C30      1.0000 0.29780  0.39820  0.91875  Biso   1.000  C
  H59      1.0000 0.30250  0.47980  0.91070  Biso   1.000  H
  H60      1.0000 0.23290  0.36280  0.90730  Biso   1.000  H
  N17      1.0000 0.37870  0.20330  0.95954  Biso   1.000  N
  N18      1.0000 0.48680  0.38620  0.96479  Biso   1.000  N
  N19      1.0000 0.39900  0.33460  0.90703  Biso   1.000  N
  N20      1.0000 0.28350  0.39540  0.95873  Biso   1.000  N
  Ag6      1.0000 0.12458  0.50256  0.97729  Biso   1.000  Ag
  C31      1.0000 0.10980  0.71150  0.91927  Biso   1.000  C
  H61      1.0000 0.04360  0.66850  0.91170  Biso   1.000  H
  H62      1.0000 0.17410  0.67490  0.90780  Biso   1.000  H
  C32      1.0000 0.00380  0.88920  0.92509  Biso   1.000  C
  H63      1.0000 0.93640  0.84780  0.91780  Biso   1.000  H
  H64      1.0000 0.99710  0.97070  0.91710  Biso   1.000  H
  C33      1.0000 0.02280  0.76290  0.97627  Biso   1.000  C
  H65      1.0000 0.02940  0.75970  0.00260  Biso   1.000  H
  H66      1.0000 0.95540  0.72080  0.96940  Biso   1.000  H
  C34      1.0000 0.22240  0.77030  0.97018  Biso   1.000  C
  H67      1.0000 0.28750  0.73370  0.95920  Biso   1.000  H
  H68      1.0000 0.23120  0.76660  0.99650  Biso   1.000  H
  C35      1.0000 0.11500  0.94800  0.97536  Biso   1.000  C
  H69      1.0000 0.10930  0.03010  0.96800  Biso   1.000  H
  H70      1.0000 0.12210  0.94600  0.00170  Biso   1.000  H
  C36      1.0000 0.20220  0.89820  0.91875  Biso   1.000  C
  H71      1.0000 0.19750  0.97980  0.91070  Biso   1.000  H
  H72      1.0000 0.26710  0.86280  0.90730  Biso   1.000  H
  N21      1.0000 0.12130  0.70330  0.95954  Biso   1.000  N
  N22      1.0000 0.01320  0.88620  0.96479  Biso   1.000  N
  N23      1.0000 0.10100  0.83460  0.90703  Biso   1.000  N
  N24      1.0000 0.21650  0.89540  0.95873  Biso   1.000  N
  Ag7      1.0000 0.87542  0.49744  0.02271  Biso   1.000  Ag
  C37      1.0000 0.89020  0.28850  0.08073  Biso   1.000  C
  H73      1.0000 0.95640  0.33150  0.08830  Biso   1.000  H
  H74      1.0000 0.82590  0.32510  0.09220  Biso   1.000  H
  C38      1.0000 0.99620  0.11080  0.07491  Biso   1.000  C
  H75      1.0000 0.06360  0.15220  0.08220  Biso   1.000  H
  H76      1.0000 0.00290  0.02930  0.08290  Biso   1.000  H
  C39      1.0000 0.97720  0.23710  0.02373  Biso   1.000  C
  H77      1.0000 0.97060  0.24030  0.99740  Biso   1.000  H
  H78      1.0000 0.04460  0.27920  0.03060  Biso   1.000  H
  C40      1.0000 0.77760  0.22970  0.02982  Biso   1.000  C
  H79      1.0000 0.71250  0.26630  0.04080  Biso   1.000  H
  H80      1.0000 0.76880  0.23340  0.00350  Biso   1.000  H
  C41      1.0000 0.88500  0.05200  0.02464  Biso   1.000  C
  H81      1.0000 0.89070  0.96990  0.03200  Biso   1.000  H
  H82      1.0000 0.87790  0.05400  0.99830  Biso   1.000  H
  C42      1.0000 0.79780  0.10180  0.08125  Biso   1.000  C
  H83      1.0000 0.80250  0.02020  0.08930  Biso   1.000  H
  H84      1.0000 0.73290  0.13720  0.09270  Biso   1.000  H
  N25      1.0000 0.87870  0.29670  0.04046  Biso   1.000  N
  N26      1.0000 0.98680  0.11380  0.03521  Biso   1.000  N
  N27      1.0000 0.89900  0.16540  0.09297  Biso   1.000  N
  N28      1.0000 0.78350  0.10460  0.04127  Biso   1.000  N
  Ag8      1.0000 0.62458  0.99744  0.02271  Biso   1.000  Ag
  C43      1.0000 0.60980  0.78850  0.08073  Biso   1.000  C
  H85      1.0000 0.54360  0.83150  0.08830  Biso   1.000  H
  H86      1.0000 0.67410  0.82510  0.09220  Biso   1.000  H
  C44      1.0000 0.50380  0.61080  0.07491  Biso   1.000  C
  H87      1.0000 0.43640  0.65220  0.08220  Biso   1.000  H
  H88      1.0000 0.49710  0.52930  0.08290  Biso   1.000  H
  C45      1.0000 0.52280  0.73710  0.02373  Biso   1.000  C
  H89      1.0000 0.52940  0.74030  0.99740  Biso   1.000  H
  H90      1.0000 0.45540  0.77920  0.03060  Biso   1.000  H
  C46      1.0000 0.72240  0.72970  0.02982  Biso   1.000  C
  H91      1.0000 0.78750  0.76630  0.04080  Biso   1.000  H
  H92      1.0000 0.73120  0.73340  0.00350  Biso   1.000  H
  C47      1.0000 0.61500  0.55200  0.02464  Biso   1.000  C
  H93      1.0000 0.60930  0.46990  0.03200  Biso   1.000  H
  H94      1.0000 0.62210  0.55400  0.99830  Biso   1.000  H
  C48      1.0000 0.70220  0.60180  0.08125  Biso   1.000  C
  H95      1.0000 0.69750  0.52020  0.08930  Biso   1.000  H
  H96      1.0000 0.76710  0.63720  0.09270  Biso   1.000  H
  N29      1.0000 0.62130  0.79670  0.04046  Biso   1.000  N
  N30      1.0000 0.51320  0.61380  0.03521  Biso   1.000  N
  N31      1.0000 0.60100  0.66540  0.09297  Biso   1.000  N
  N32      1.0000 0.71650  0.60460  0.04127  Biso   1.000  N
