data_image0
_cell_length_a       8.5555
_cell_length_b       11.4445
_cell_length_c       8.106
_cell_angle_alpha    90
_cell_angle_beta     90
_cell_angle_gamma    90

_symmetry_space_group_name_H-M    "P 1"
_symmetry_int_tables_number       1

loop_
  _symmetry_equiv_pos_as_xyz
  'x, y, z'

loop_
  _atom_site_label
  _atom_site_occupancy
  _atom_site_fract_x
  _atom_site_fract_y
  _atom_site_fract_z
  _atom_site_thermal_displace_type
  _atom_site_B_iso_or_equiv
  _atom_site_type_symbol
  O1       1.0000 0.02269  0.34585  0.11649  Biso   1.000  O
  O2       1.0000 0.97731  0.84585  0.88351  Biso   1.000  O
  O3       1.0000 0.97731  0.65415  0.88351  Biso   1.000  O
  O4       1.0000 0.02269  0.15415  0.11649  Biso   1.000  O
  Cu1      1.0000 0.00000  0.50000  0.00000  Biso   1.000  Cu
  Cu2      1.0000 0.00000  0.00000  0.00000  Biso   1.000  Cu
  C1       1.0000 0.00450  0.25000  0.04540  Biso   1.000  C
  H1       1.0000 0.97500  0.25000  0.93100  Biso   1.000  H
  C2       1.0000 0.99550  0.75000  0.95460  Biso   1.000  C
  H2       1.0000 0.02500  0.75000  0.06900  Biso   1.000  H
  O5       1.0000 0.47731  0.65415  0.61649  Biso   1.000  O
  O6       1.0000 0.52269  0.15415  0.38351  Biso   1.000  O
  O7       1.0000 0.52269  0.34585  0.38351  Biso   1.000  O
  O8       1.0000 0.47731  0.84585  0.61649  Biso   1.000  O
  Cu3      1.0000 0.50000  0.50000  0.50000  Biso   1.000  Cu
  Cu4      1.0000 0.50000  0.00000  0.50000  Biso   1.000  Cu
  C3       1.0000 0.49550  0.75000  0.54540  Biso   1.000  C
  H3       1.0000 0.52500  0.75000  0.43100  Biso   1.000  H
  C4       1.0000 0.50450  0.25000  0.45460  Biso   1.000  C
  H4       1.0000 0.47500  0.25000  0.56900  Biso   1.000  H
