data_image0
_cell_length_a       16.951
_cell_length_b       23.303
_cell_length_c       27.845
_cell_angle_alpha    90
_cell_angle_beta     125.992
_cell_angle_gamma    90

_symmetry_space_group_name_H-M    "P 1"
_symmetry_int_tables_number       1

loop_
  _symmetry_equiv_pos_as_xyz
  'x, y, z'

loop_
  _atom_site_label
  _atom_site_occupancy
  _atom_site_fract_x
  _atom_site_fract_y
  _atom_site_fract_z
  _atom_site_thermal_displace_type
  _atom_site_B_iso_or_equiv
  _atom_site_type_symbol
  C1       1.0000 0.80600  0.90600  0.30840  Biso   1.000  C
  H1       1.0000 0.75180  0.88140  0.28750  Biso   1.000  H
  C2       1.0000 0.88500  0.91000  0.30300  Biso   1.000  C
  H2       1.0000 0.89810  0.88750  0.28100  Biso   1.000  H
  C3       1.0000 0.60100  0.01500  0.46000  Biso   1.000  C
  H3       1.0000 0.54600  0.01580  0.45990  Biso   1.000  H
  C4       1.0000 0.61200  0.98200  0.43310  Biso   1.000  C
  H4       1.0000 0.57120  0.95140  0.41200  Biso   1.000  H
  C5       1.0000 0.93700  0.31820  0.62230  Biso   1.000  C
  H5       1.0000 0.92990  0.29120  0.64410  Biso   1.000  H
  C6       1.0000 0.00300  0.32300  0.60790  Biso   1.000  C
  H6       1.0000 0.04080  0.29190  0.61260  Biso   1.000  H
  C7       1.0000 0.72700  0.62930  0.50200  Biso   1.000  C
  H7       1.0000 0.69420  0.65230  0.51220  Biso   1.000  H
  C8       1.0000 0.74600  0.64400  0.45880  Biso   1.000  C
  H8       1.0000 0.72620  0.67580  0.43420  Biso   1.000  H
  N1       1.0000 0.43200  0.34100  0.45940  Biso   1.000  N
  C9       1.0000 0.50100  0.34100  0.51800  Biso   1.000  C
  H9       1.0000 0.54440  0.37010  0.54160  Biso   1.000  H
  C10      1.0000 0.25800  0.02300  0.37750  Biso   1.000  C
  H10      1.0000 0.25220  0.99290  0.35350  Biso   1.000  H
  C11      1.0000 0.32800  0.06300  0.40220  Biso   1.000  C
  H11      1.0000 0.37570  0.06800  0.39590  Biso   1.000  H
  C12      1.0000 0.76200  0.04200  0.22200  Biso   1.000  C
  H12      1.0000 0.77760  0.06850  0.25140  Biso   1.000  H
  C13      1.0000 0.68300  0.00900  0.19720  Biso   1.000  C
  H13      1.0000 0.63540  0.00750  0.20420  Biso   1.000  H
  C14      1.0000 0.13300  0.10900  0.24470  Biso   1.000  C
  H14      1.0000 0.12240  0.07780  0.22070  Biso   1.000  H
  C15      1.0000 0.21000  0.14500  0.26680  Biso   1.000  C
  H15      1.0000 0.25290  0.14560  0.25620  Biso   1.000  H
  C16      1.0000 0.03800  0.16000  0.56190  Biso   1.000  C
  H16      1.0000 0.02720  0.17990  0.58680  Biso   1.000  H
  C17      1.0000 0.12000  0.16300  0.55170  Biso   1.000  C
  H17      1.0000 0.16970  0.19010  0.57010  Biso   1.000  H
  Ag1      1.0000 0.78780  0.96144  0.09997  Biso   1.000  Ag
  Ag2      1.0000 0.15420  0.18050  0.38550  Biso   1.000  Ag
  Ag3      1.0000 0.74590  0.96439  0.38823  Biso   1.000  Ag
  Ag4      1.0000 0.96090  0.03989  0.42880  Biso   1.000  Ag
  Ag5      1.0000 0.29340  0.24730  0.36119  Biso   1.000  Ag
  Ag6      1.0000 0.18320  0.10570  0.47860  Biso   1.000  Ag
  Ag7      1.0000 0.06740  0.99100  0.36182  Biso   1.000  Ag
  Ag8      1.0000 0.10740  0.39605  0.56747  Biso   1.000  Ag
  Ag9      1.0000 0.89030  0.48328  0.53326  Biso   1.000  Ag
  Ag10     1.0000 0.85650  0.08420  0.49808  Biso   1.000  Ag
  Ag11     1.0000 0.38880  0.17060  0.47766  Biso   1.000  Ag
  Ag12     1.0000 0.94490  0.08230  0.23374  Biso   1.000  Ag
  Ag13     1.0000 0.68670  0.13920  0.52147  Biso   1.000  Ag
  Ag14     1.0000 0.74680  0.40960  0.56430  Biso   1.000  Ag
  Ag15     1.0000 0.61560  0.91024  0.10022  Biso   1.000  Ag
  N2       1.0000 0.73400  0.03720  0.47620  Biso   1.000  N
  N3       1.0000 0.93100  0.40220  0.57560  Biso   1.000  N
  N4       1.0000 0.90100  0.97410  0.36970  Biso   1.000  N
  N5       1.0000 0.43600  0.25920  0.48900  Biso   1.000  N
  N6       1.0000 0.12600  0.16400  0.29600  Biso   1.000  N
  N7       1.0000 0.81420  0.56160  0.50400  Biso   1.000  N
  N8       1.0000 0.76900  0.99890  0.16180  Biso   1.000  N
  N9       1.0000 0.02900  0.10200  0.49470  Biso   1.000  N
  N10      1.0000 0.23700  0.07250  0.43190  Biso   1.000  N
  N11      1.0000 0.88200  0.37140  0.59030  Biso   1.000  N
  N12      1.0000 0.01200  0.37070  0.58840  Biso   1.000  N
  N13      1.0000 0.31700  0.09400  0.43620  Biso   1.000  N
  N14      1.0000 0.11200  0.12770  0.51830  Biso   1.000  N
  N15      1.0000 0.39500  0.28980  0.44380  Biso   1.000  N
  N16      1.0000 0.82600  0.94470  0.35000  Biso   1.000  N
  N17      1.0000 0.69500  0.99560  0.43710  Biso   1.000  N
  N18      1.0000 0.67900  0.05360  0.49200  Biso   1.000  N
  N19      1.0000 0.21400  0.17900  0.30700  Biso   1.000  N
  N20      1.0000 0.07800  0.12100  0.25880  Biso   1.000  N
  N21      1.0000 0.76400  0.57850  0.52410  Biso   1.000  N
  N22      1.0000 0.19800  0.03190  0.39250  Biso   1.000  N
  N23      1.0000 0.80100  0.59890  0.46370  Biso   1.000  N
  N24      1.0000 0.69100  0.97810  0.15890  Biso   1.000  N
  N25      1.0000 0.81200  0.03660  0.20390  Biso   1.000  N
  N26      1.0000 0.98900  0.11940  0.52160  Biso   1.000  N
  C18      1.0000 0.49100  0.28700  0.53500  Biso   1.000  C
  H18      1.0000 0.51940  0.27490  0.57380  Biso   1.000  H
  N27      1.0000 0.93400  0.95390  0.33940  Biso   1.000  N
  C19      1.0000 0.19400  0.40600  0.19160  Biso   1.000  C
  H19      1.0000 0.24820  0.38140  0.21250  Biso   1.000  H
  C20      1.0000 0.11500  0.41000  0.19700  Biso   1.000  C
  H20      1.0000 0.10190  0.38750  0.21900  Biso   1.000  H
  C21      1.0000 0.39900  0.51500  0.04000  Biso   1.000  C
  H21      1.0000 0.45400  0.51580  0.04010  Biso   1.000  H
  C22      1.0000 0.38800  0.48200  0.06690  Biso   1.000  C
  H22      1.0000 0.42880  0.45140  0.08800  Biso   1.000  H
  C23      1.0000 0.06300  0.81820  0.87770  Biso   1.000  C
  H23      1.0000 0.07010  0.79120  0.85590  Biso   1.000  H
  C24      1.0000 0.99700  0.82300  0.89210  Biso   1.000  C
  H24      1.0000 0.95920  0.79190  0.88740  Biso   1.000  H
  C25      1.0000 0.27300  0.12930  0.99800  Biso   1.000  C
  H25      1.0000 0.30580  0.15230  0.98780  Biso   1.000  H
  C26      1.0000 0.25400  0.14400  0.04120  Biso   1.000  C
  H26      1.0000 0.27380  0.17580  0.06580  Biso   1.000  H
  N28      1.0000 0.56800  0.84100  0.04060  Biso   1.000  N
  C27      1.0000 0.49900  0.84100  0.98200  Biso   1.000  C
  H27      1.0000 0.45560  0.87010  0.95840  Biso   1.000  H
  C28      1.0000 0.74200  0.52300  0.12250  Biso   1.000  C
  H28      1.0000 0.74780  0.49290  0.14650  Biso   1.000  H
  C29      1.0000 0.67200  0.56300  0.09780  Biso   1.000  C
  H29      1.0000 0.62430  0.56800  0.10410  Biso   1.000  H
  C30      1.0000 0.23800  0.54200  0.27800  Biso   1.000  C
  H30      1.0000 0.22240  0.56850  0.24860  Biso   1.000  H
  C31      1.0000 0.31700  0.50900  0.30280  Biso   1.000  C
  H31      1.0000 0.36460  0.50750  0.29580  Biso   1.000  H
  C32      1.0000 0.86700  0.60900  0.25530  Biso   1.000  C
  H32      1.0000 0.87760  0.57780  0.27930  Biso   1.000  H
  C33      1.0000 0.79000  0.64500  0.23320  Biso   1.000  C
  H33      1.0000 0.74710  0.64560  0.24380  Biso   1.000  H
  C34      1.0000 0.96200  0.66000  0.93810  Biso   1.000  C
  H34      1.0000 0.97280  0.67990  0.91320  Biso   1.000  H
  C35      1.0000 0.88000  0.66300  0.94830  Biso   1.000  C
  H35      1.0000 0.83030  0.69010  0.92990  Biso   1.000  H
  Ag16     1.0000 0.21220  0.46144  0.40003  Biso   1.000  Ag
  Ag17     1.0000 0.84580  0.68050  0.11450  Biso   1.000  Ag
  Ag18     1.0000 0.25410  0.46439  0.11177  Biso   1.000  Ag
  Ag19     1.0000 0.03910  0.53989  0.07120  Biso   1.000  Ag
  Ag20     1.0000 0.70660  0.74730  0.13881  Biso   1.000  Ag
  Ag21     1.0000 0.81680  0.60570  0.02140  Biso   1.000  Ag
  Ag22     1.0000 0.93260  0.49100  0.13818  Biso   1.000  Ag
  Ag23     1.0000 0.89260  0.89605  0.93253  Biso   1.000  Ag
  Ag24     1.0000 0.10970  0.98328  0.96674  Biso   1.000  Ag
  Ag25     1.0000 0.14350  0.58420  0.00192  Biso   1.000  Ag
  Ag26     1.0000 0.61120  0.67060  0.02234  Biso   1.000  Ag
  Ag27     1.0000 0.05510  0.58230  0.26626  Biso   1.000  Ag
  Ag28     1.0000 0.31330  0.63920  0.97853  Biso   1.000  Ag
  Ag29     1.0000 0.25320  0.90960  0.93570  Biso   1.000  Ag
  Ag30     1.0000 0.38440  0.41024  0.39978  Biso   1.000  Ag
  N29      1.0000 0.26600  0.53720  0.02380  Biso   1.000  N
  N30      1.0000 0.06900  0.90220  0.92440  Biso   1.000  N
  N31      1.0000 0.09900  0.47410  0.13030  Biso   1.000  N
  N32      1.0000 0.56400  0.75920  0.01100  Biso   1.000  N
  N33      1.0000 0.87400  0.66400  0.20400  Biso   1.000  N
  N34      1.0000 0.18580  0.06160  0.99600  Biso   1.000  N
  N35      1.0000 0.23100  0.49890  0.33820  Biso   1.000  N
  N36      1.0000 0.97100  0.60200  0.00530  Biso   1.000  N
  N37      1.0000 0.76300  0.57250  0.06810  Biso   1.000  N
  N38      1.0000 0.11800  0.87140  0.90970  Biso   1.000  N
  N39      1.0000 0.98800  0.87070  0.91160  Biso   1.000  N
  N40      1.0000 0.68300  0.59400  0.06380  Biso   1.000  N
  N41      1.0000 0.88800  0.62770  0.98170  Biso   1.000  N
  N42      1.0000 0.60500  0.78980  0.05620  Biso   1.000  N
  N43      1.0000 0.17400  0.44470  0.15000  Biso   1.000  N
  N44      1.0000 0.30500  0.49560  0.06290  Biso   1.000  N
  N45      1.0000 0.32100  0.55360  0.00800  Biso   1.000  N
  N46      1.0000 0.78600  0.67900  0.19300  Biso   1.000  N
  N47      1.0000 0.92200  0.62100  0.24120  Biso   1.000  N
  N48      1.0000 0.23600  0.07850  0.97590  Biso   1.000  N
  N49      1.0000 0.80200  0.53190  0.10750  Biso   1.000  N
  N50      1.0000 0.19900  0.09890  0.03630  Biso   1.000  N
  N51      1.0000 0.30900  0.47810  0.34110  Biso   1.000  N
  N52      1.0000 0.18800  0.53660  0.29610  Biso   1.000  N
  N53      1.0000 0.01100  0.61940  0.97840  Biso   1.000  N
  C36      1.0000 0.50900  0.78700  0.96500  Biso   1.000  C
  H36      1.0000 0.48060  0.77490  0.92620  Biso   1.000  H
  N54      1.0000 0.06600  0.45390  0.16060  Biso   1.000  N
  C37      1.0000 0.19400  0.09400  0.69160  Biso   1.000  C
  H37      1.0000 0.24820  0.11860  0.71250  Biso   1.000  H
  C38      1.0000 0.11500  0.09000  0.69700  Biso   1.000  C
  H38      1.0000 0.10190  0.11250  0.71900  Biso   1.000  H
  C39      1.0000 0.39900  0.98500  0.54000  Biso   1.000  C
  H39      1.0000 0.45400  0.98420  0.54010  Biso   1.000  H
  C40      1.0000 0.38800  0.01800  0.56690  Biso   1.000  C
  H40      1.0000 0.42880  0.04860  0.58800  Biso   1.000  H
  C41      1.0000 0.06300  0.68180  0.37770  Biso   1.000  C
  H41      1.0000 0.07010  0.70880  0.35590  Biso   1.000  H
  C42      1.0000 0.99700  0.67700  0.39210  Biso   1.000  C
  H42      1.0000 0.95920  0.70810  0.38740  Biso   1.000  H
  C43      1.0000 0.27300  0.37070  0.49800  Biso   1.000  C
  H43      1.0000 0.30580  0.34770  0.48780  Biso   1.000  H
  C44      1.0000 0.25400  0.35600  0.54120  Biso   1.000  C
  H44      1.0000 0.27380  0.32420  0.56580  Biso   1.000  H
  N55      1.0000 0.56800  0.65900  0.54060  Biso   1.000  N
  C45      1.0000 0.49900  0.65900  0.48200  Biso   1.000  C
  H45      1.0000 0.45560  0.62990  0.45840  Biso   1.000  H
  C46      1.0000 0.74200  0.97700  0.62250  Biso   1.000  C
  H46      1.0000 0.74780  0.00710  0.64650  Biso   1.000  H
  C47      1.0000 0.67200  0.93700  0.59780  Biso   1.000  C
  H47      1.0000 0.62430  0.93200  0.60410  Biso   1.000  H
  C48      1.0000 0.23800  0.95800  0.77800  Biso   1.000  C
  H48      1.0000 0.22240  0.93150  0.74860  Biso   1.000  H
  C49      1.0000 0.31700  0.99100  0.80280  Biso   1.000  C
  H49      1.0000 0.36460  0.99250  0.79580  Biso   1.000  H
  C50      1.0000 0.86700  0.89100  0.75530  Biso   1.000  C
  H50      1.0000 0.87760  0.92220  0.77930  Biso   1.000  H
  C51      1.0000 0.79000  0.85500  0.73320  Biso   1.000  C
  H51      1.0000 0.74710  0.85440  0.74380  Biso   1.000  H
  C52      1.0000 0.96200  0.84000  0.43810  Biso   1.000  C
  H52      1.0000 0.97280  0.82010  0.41320  Biso   1.000  H
  C53      1.0000 0.88000  0.83700  0.44830  Biso   1.000  C
  H53      1.0000 0.83030  0.80990  0.42990  Biso   1.000  H
  Ag31     1.0000 0.21220  0.03856  0.90003  Biso   1.000  Ag
  Ag32     1.0000 0.84580  0.81950  0.61450  Biso   1.000  Ag
  Ag33     1.0000 0.25410  0.03561  0.61177  Biso   1.000  Ag
  Ag34     1.0000 0.03910  0.96011  0.57120  Biso   1.000  Ag
  Ag35     1.0000 0.70660  0.75270  0.63881  Biso   1.000  Ag
  Ag36     1.0000 0.81680  0.89430  0.52140  Biso   1.000  Ag
  Ag37     1.0000 0.93260  0.00900  0.63818  Biso   1.000  Ag
  Ag38     1.0000 0.89260  0.60395  0.43253  Biso   1.000  Ag
  Ag39     1.0000 0.10970  0.51672  0.46674  Biso   1.000  Ag
  Ag40     1.0000 0.14350  0.91580  0.50192  Biso   1.000  Ag
  Ag41     1.0000 0.61120  0.82940  0.52234  Biso   1.000  Ag
  Ag42     1.0000 0.05510  0.91770  0.76626  Biso   1.000  Ag
  Ag43     1.0000 0.31330  0.86080  0.47853  Biso   1.000  Ag
  Ag44     1.0000 0.25320  0.59040  0.43570  Biso   1.000  Ag
  Ag45     1.0000 0.38440  0.08976  0.89978  Biso   1.000  Ag
  N56      1.0000 0.26600  0.96280  0.52380  Biso   1.000  N
  N57      1.0000 0.06900  0.59780  0.42440  Biso   1.000  N
  N58      1.0000 0.09900  0.02590  0.63030  Biso   1.000  N
  N59      1.0000 0.56400  0.74080  0.51100  Biso   1.000  N
  N60      1.0000 0.87400  0.83600  0.70400  Biso   1.000  N
  N61      1.0000 0.18580  0.43840  0.49600  Biso   1.000  N
  N62      1.0000 0.23100  0.00110  0.83820  Biso   1.000  N
  N63      1.0000 0.97100  0.89800  0.50530  Biso   1.000  N
  N64      1.0000 0.76300  0.92750  0.56810  Biso   1.000  N
  N65      1.0000 0.11800  0.62860  0.40970  Biso   1.000  N
  N66      1.0000 0.98800  0.62930  0.41160  Biso   1.000  N
  N67      1.0000 0.68300  0.90600  0.56380  Biso   1.000  N
  N68      1.0000 0.88800  0.87230  0.48170  Biso   1.000  N
  N69      1.0000 0.60500  0.71020  0.55620  Biso   1.000  N
  N70      1.0000 0.17400  0.05530  0.65000  Biso   1.000  N
  N71      1.0000 0.30500  0.00440  0.56290  Biso   1.000  N
  N72      1.0000 0.32100  0.94640  0.50800  Biso   1.000  N
  N73      1.0000 0.78600  0.82100  0.69300  Biso   1.000  N
  N74      1.0000 0.92200  0.87900  0.74120  Biso   1.000  N
  N75      1.0000 0.23600  0.42150  0.47590  Biso   1.000  N
  N76      1.0000 0.80200  0.96810  0.60750  Biso   1.000  N
  N77      1.0000 0.19900  0.40110  0.53630  Biso   1.000  N
  N78      1.0000 0.30900  0.02190  0.84110  Biso   1.000  N
  N79      1.0000 0.18800  0.96340  0.79610  Biso   1.000  N
  N80      1.0000 0.01100  0.88060  0.47840  Biso   1.000  N
  C54      1.0000 0.50900  0.71300  0.46500  Biso   1.000  C
  H54      1.0000 0.48060  0.72510  0.42620  Biso   1.000  H
  N81      1.0000 0.06600  0.04610  0.66060  Biso   1.000  N
  C55      1.0000 0.80600  0.59400  0.80840  Biso   1.000  C
  H55      1.0000 0.75180  0.61860  0.78750  Biso   1.000  H
  C56      1.0000 0.88500  0.59000  0.80300  Biso   1.000  C
  H56      1.0000 0.89810  0.61250  0.78100  Biso   1.000  H
  C57      1.0000 0.60100  0.48500  0.96000  Biso   1.000  C
  H57      1.0000 0.54600  0.48420  0.95990  Biso   1.000  H
  C58      1.0000 0.61200  0.51800  0.93310  Biso   1.000  C
  H58      1.0000 0.57120  0.54860  0.91200  Biso   1.000  H
  C59      1.0000 0.93700  0.18180  0.12230  Biso   1.000  C
  H59      1.0000 0.92990  0.20880  0.14410  Biso   1.000  H
  C60      1.0000 0.00300  0.17700  0.10790  Biso   1.000  C
  H60      1.0000 0.04080  0.20810  0.11260  Biso   1.000  H
  C61      1.0000 0.72700  0.87070  0.00200  Biso   1.000  C
  H61      1.0000 0.69420  0.84770  0.01220  Biso   1.000  H
  C62      1.0000 0.74600  0.85600  0.95880  Biso   1.000  C
  H62      1.0000 0.72620  0.82420  0.93420  Biso   1.000  H
  N82      1.0000 0.43200  0.15900  0.95940  Biso   1.000  N
  C63      1.0000 0.50100  0.15900  0.01800  Biso   1.000  C
  H63      1.0000 0.54440  0.12990  0.04160  Biso   1.000  H
  C64      1.0000 0.25800  0.47700  0.87750  Biso   1.000  C
  H64      1.0000 0.25220  0.50710  0.85350  Biso   1.000  H
  C65      1.0000 0.32800  0.43700  0.90220  Biso   1.000  C
  H65      1.0000 0.37570  0.43200  0.89590  Biso   1.000  H
  C66      1.0000 0.76200  0.45800  0.72200  Biso   1.000  C
  H66      1.0000 0.77760  0.43150  0.75140  Biso   1.000  H
  C67      1.0000 0.68300  0.49100  0.69720  Biso   1.000  C
  H67      1.0000 0.63540  0.49250  0.70420  Biso   1.000  H
  C68      1.0000 0.13300  0.39100  0.74470  Biso   1.000  C
  H68      1.0000 0.12240  0.42220  0.72070  Biso   1.000  H
  C69      1.0000 0.21000  0.35500  0.76680  Biso   1.000  C
  H69      1.0000 0.25290  0.35440  0.75620  Biso   1.000  H
  C70      1.0000 0.03800  0.34000  0.06190  Biso   1.000  C
  H70      1.0000 0.02720  0.32010  0.08680  Biso   1.000  H
  C71      1.0000 0.12000  0.33700  0.05170  Biso   1.000  C
  H71      1.0000 0.16970  0.30990  0.07010  Biso   1.000  H
  Ag46     1.0000 0.78780  0.53856  0.59997  Biso   1.000  Ag
  Ag47     1.0000 0.15420  0.31950  0.88550  Biso   1.000  Ag
  Ag48     1.0000 0.74590  0.53561  0.88823  Biso   1.000  Ag
  Ag49     1.0000 0.96090  0.46011  0.92880  Biso   1.000  Ag
  Ag50     1.0000 0.29340  0.25270  0.86119  Biso   1.000  Ag
  Ag51     1.0000 0.18320  0.39430  0.97860  Biso   1.000  Ag
  Ag52     1.0000 0.06740  0.50900  0.86182  Biso   1.000  Ag
  Ag53     1.0000 0.10740  0.10395  0.06747  Biso   1.000  Ag
  Ag54     1.0000 0.89030  0.01672  0.03326  Biso   1.000  Ag
  Ag55     1.0000 0.85650  0.41580  0.99808  Biso   1.000  Ag
  Ag56     1.0000 0.38880  0.32940  0.97766  Biso   1.000  Ag
  Ag57     1.0000 0.94490  0.41770  0.73374  Biso   1.000  Ag
  Ag58     1.0000 0.68670  0.36080  0.02147  Biso   1.000  Ag
  Ag59     1.0000 0.74680  0.09040  0.06430  Biso   1.000  Ag
  Ag60     1.0000 0.61560  0.58976  0.60022  Biso   1.000  Ag
  N83      1.0000 0.73400  0.46280  0.97620  Biso   1.000  N
  N84      1.0000 0.93100  0.09780  0.07560  Biso   1.000  N
  N85      1.0000 0.90100  0.52590  0.86970  Biso   1.000  N
  N86      1.0000 0.43600  0.24080  0.98900  Biso   1.000  N
  N87      1.0000 0.12600  0.33600  0.79600  Biso   1.000  N
  N88      1.0000 0.81420  0.93840  0.00400  Biso   1.000  N
  N89      1.0000 0.76900  0.50110  0.66180  Biso   1.000  N
  N90      1.0000 0.02900  0.39800  0.99470  Biso   1.000  N
  N91      1.0000 0.23700  0.42750  0.93190  Biso   1.000  N
  N92      1.0000 0.88200  0.12860  0.09030  Biso   1.000  N
  N93      1.0000 0.01200  0.12930  0.08840  Biso   1.000  N
  N94      1.0000 0.31700  0.40600  0.93620  Biso   1.000  N
  N95      1.0000 0.11200  0.37230  0.01830  Biso   1.000  N
  N96      1.0000 0.39500  0.21020  0.94380  Biso   1.000  N
  N97      1.0000 0.82600  0.55530  0.85000  Biso   1.000  N
  N98      1.0000 0.69500  0.50440  0.93710  Biso   1.000  N
  N99      1.0000 0.67900  0.44640  0.99200  Biso   1.000  N
  N100     1.0000 0.21400  0.32100  0.80700  Biso   1.000  N
  N101     1.0000 0.07800  0.37900  0.75880  Biso   1.000  N
  N102     1.0000 0.76400  0.92150  0.02410  Biso   1.000  N
  N103     1.0000 0.19800  0.46810  0.89250  Biso   1.000  N
  N104     1.0000 0.80100  0.90110  0.96370  Biso   1.000  N
  N105     1.0000 0.69100  0.52190  0.65890  Biso   1.000  N
  N106     1.0000 0.81200  0.46340  0.70390  Biso   1.000  N
  N107     1.0000 0.98900  0.38060  0.02160  Biso   1.000  N
  C72      1.0000 0.49100  0.21300  0.03500  Biso   1.000  C
  H72      1.0000 0.51940  0.22510  0.07380  Biso   1.000  H
  N108     1.0000 0.93400  0.54610  0.83940  Biso   1.000  N
