data_image0
_cell_length_a       32.099
_cell_length_b       12.916
_cell_length_c       21.431
_cell_angle_alpha    90
_cell_angle_beta     126.74
_cell_angle_gamma    90

_symmetry_space_group_name_H-M    "P 1"
_symmetry_int_tables_number       1

loop_
  _symmetry_equiv_pos_as_xyz
  'x, y, z'

loop_
  _atom_site_label
  _atom_site_occupancy
  _atom_site_fract_x
  _atom_site_fract_y
  _atom_site_fract_z
  _atom_site_thermal_displace_type
  _atom_site_B_iso_or_equiv
  _atom_site_type_symbol
  Ag1      1.0000 0.17373  0.01881  0.91546  Biso   1.000  Ag
  Ag2      1.0000 0.11035  0.79964  0.10196  Biso   1.000  Ag
  N1       1.0000 0.07638  0.73630  0.86840  Biso   1.000  N
  N2       1.0000 0.11760  0.78050  0.00410  Biso   1.000  N
  N3       1.0000 0.14529  0.86810  0.93290  Biso   1.000  N
  N4       1.0000 0.16689  0.68640  0.96880  Biso   1.000  N
  C1       1.0000 0.13610  0.87900  0.99200  Biso   1.000  C
  H1       1.0000 0.16760  0.90080  0.04030  Biso   1.000  H
  H2       1.0000 0.11030  0.93150  0.97560  Biso   1.000  H
  C2       1.0000 0.15790  0.70030  0.02800  Biso   1.000  C
  H3       1.0000 0.14610  0.63590  0.03480  Biso   1.000  H
  H4       1.0000 0.18980  0.71880  0.07710  Biso   1.000  H
  C3       1.0000 0.06890  0.74890  0.92870  Biso   1.000  C
  H5       1.0000 0.05700  0.68490  0.93570  Biso   1.000  H
  H6       1.0000 0.04280  0.80090  0.91230  Biso   1.000  H
  C4       1.0000 0.09570  0.83340  0.85900  Biso   1.000  C
  H7       1.0000 0.06990  0.88590  0.84250  Biso   1.000  H
  H8       1.0000 0.10040  0.82540  0.81900  Biso   1.000  H
  C5       1.0000 0.11710  0.65650  0.89390  Biso   1.000  C
  H9       1.0000 0.12210  0.64670  0.85430  Biso   1.000  H
  H10      1.0000 0.10540  0.59210  0.90090  Biso   1.000  H
  C6       1.0000 0.18420  0.78600  0.95790  Biso   1.000  C
  H11      1.0000 0.21620  0.80630  0.00620  Biso   1.000  H
  H12      1.0000 0.19070  0.77790  0.91990  Biso   1.000  H
  N5       1.0000 0.87932  0.23520  0.78630  Biso   1.000  N
  N6       1.0000 0.92271  0.28750  0.72810  Biso   1.000  N
  N7       1.0000 0.85173  0.16150  0.66230  Biso   1.000  N
  N8       1.0000 0.83356  0.34280  0.66900  Biso   1.000  N
  C7       1.0000 0.85940  0.14220  0.73660  Biso   1.000  C
  H13      1.0000 0.82650  0.12470  0.72540  Biso   1.000  H
  H14      1.0000 0.88260  0.08490  0.76350  Biso   1.000  H
  C8       1.0000 0.92930  0.26700  0.80100  Biso   1.000  C
  H15      1.0000 0.95420  0.21220  0.82830  Biso   1.000  H
  H16      1.0000 0.94280  0.32760  0.83340  Biso   1.000  H
  C9       1.0000 0.84180  0.32110  0.74330  Biso   1.000  C
  H17      1.0000 0.85400  0.38240  0.77490  Biso   1.000  H
  H18      1.0000 0.80920  0.30140  0.73250  Biso   1.000  H
  C10      1.0000 0.88330  0.37090  0.68610  Biso   1.000  C
  H19      1.0000 0.87820  0.38530  0.63800  Biso   1.000  H
  H20      1.0000 0.89600  0.43290  0.71690  Biso   1.000  H
  C11      1.0000 0.81400  0.24800  0.62160  Biso   1.000  C
  H21      1.0000 0.78180  0.22840  0.61200  Biso   1.000  H
  H22      1.0000 0.80750  0.26090  0.57240  Biso   1.000  H
  C12      1.0000 0.90180  0.19330  0.67920  Biso   1.000  C
  H23      1.0000 0.92630  0.13780  0.70560  Biso   1.000  H
  H24      1.0000 0.89690  0.20570  0.63100  Biso   1.000  H
  Ag3      1.0000 0.82627  0.01881  0.58454  Biso   1.000  Ag
  Ag4      1.0000 0.88965  0.79964  0.39804  Biso   1.000  Ag
  N9       1.0000 0.92362  0.73630  0.63160  Biso   1.000  N
  N10      1.0000 0.88240  0.78050  0.49590  Biso   1.000  N
  N11      1.0000 0.85471  0.86810  0.56710  Biso   1.000  N
  N12      1.0000 0.83311  0.68640  0.53120  Biso   1.000  N
  C13      1.0000 0.86390  0.87900  0.50800  Biso   1.000  C
  H25      1.0000 0.83240  0.90080  0.45970  Biso   1.000  H
  H26      1.0000 0.88970  0.93150  0.52440  Biso   1.000  H
  C14      1.0000 0.84210  0.70030  0.47200  Biso   1.000  C
  H27      1.0000 0.85390  0.63590  0.46520  Biso   1.000  H
  H28      1.0000 0.81020  0.71880  0.42290  Biso   1.000  H
  C15      1.0000 0.93110  0.74890  0.57130  Biso   1.000  C
  H29      1.0000 0.94300  0.68490  0.56430  Biso   1.000  H
  H30      1.0000 0.95720  0.80090  0.58770  Biso   1.000  H
  C16      1.0000 0.90430  0.83340  0.64100  Biso   1.000  C
  H31      1.0000 0.93010  0.88590  0.65750  Biso   1.000  H
  H32      1.0000 0.89960  0.82540  0.68100  Biso   1.000  H
  C17      1.0000 0.88290  0.65650  0.60610  Biso   1.000  C
  H33      1.0000 0.87790  0.64670  0.64570  Biso   1.000  H
  H34      1.0000 0.89460  0.59210  0.59910  Biso   1.000  H
  C18      1.0000 0.81580  0.78600  0.54210  Biso   1.000  C
  H35      1.0000 0.78380  0.80630  0.49380  Biso   1.000  H
  H36      1.0000 0.80930  0.77790  0.58010  Biso   1.000  H
  N13      1.0000 0.12068  0.23520  0.71370  Biso   1.000  N
  N14      1.0000 0.07729  0.28750  0.77190  Biso   1.000  N
  N15      1.0000 0.14827  0.16150  0.83770  Biso   1.000  N
  N16      1.0000 0.16644  0.34280  0.83100  Biso   1.000  N
  C19      1.0000 0.14060  0.14220  0.76340  Biso   1.000  C
  H37      1.0000 0.17350  0.12470  0.77460  Biso   1.000  H
  H38      1.0000 0.11740  0.08490  0.73650  Biso   1.000  H
  C20      1.0000 0.07070  0.26700  0.69900  Biso   1.000  C
  H39      1.0000 0.04580  0.21220  0.67170  Biso   1.000  H
  H40      1.0000 0.05720  0.32760  0.66660  Biso   1.000  H
  C21      1.0000 0.15820  0.32110  0.75670  Biso   1.000  C
  H41      1.0000 0.14600  0.38240  0.72510  Biso   1.000  H
  H42      1.0000 0.19080  0.30140  0.76750  Biso   1.000  H
  C22      1.0000 0.11670  0.37090  0.81390  Biso   1.000  C
  H43      1.0000 0.12180  0.38530  0.86200  Biso   1.000  H
  H44      1.0000 0.10400  0.43290  0.78310  Biso   1.000  H
  C23      1.0000 0.18600  0.24800  0.87840  Biso   1.000  C
  H45      1.0000 0.21820  0.22840  0.88800  Biso   1.000  H
  H46      1.0000 0.19250  0.26090  0.92760  Biso   1.000  H
  C24      1.0000 0.09820  0.19330  0.82080  Biso   1.000  C
  H47      1.0000 0.07370  0.13780  0.79440  Biso   1.000  H
  H48      1.0000 0.10310  0.20570  0.86900  Biso   1.000  H
  Ag5      1.0000 0.82627  0.98119  0.08454  Biso   1.000  Ag
  Ag6      1.0000 0.88965  0.20036  0.89804  Biso   1.000  Ag
  N17      1.0000 0.92362  0.26370  0.13160  Biso   1.000  N
  N18      1.0000 0.88240  0.21950  0.99590  Biso   1.000  N
  N19      1.0000 0.85471  0.13190  0.06710  Biso   1.000  N
  N20      1.0000 0.83311  0.31360  0.03120  Biso   1.000  N
  C25      1.0000 0.86390  0.12100  0.00800  Biso   1.000  C
  H49      1.0000 0.83240  0.09920  0.95970  Biso   1.000  H
  H50      1.0000 0.88970  0.06850  0.02440  Biso   1.000  H
  C26      1.0000 0.84210  0.29970  0.97200  Biso   1.000  C
  H51      1.0000 0.85390  0.36410  0.96520  Biso   1.000  H
  H52      1.0000 0.81020  0.28120  0.92290  Biso   1.000  H
  C27      1.0000 0.93110  0.25110  0.07130  Biso   1.000  C
  H53      1.0000 0.94300  0.31510  0.06430  Biso   1.000  H
  H54      1.0000 0.95720  0.19910  0.08770  Biso   1.000  H
  C28      1.0000 0.90430  0.16660  0.14100  Biso   1.000  C
  H55      1.0000 0.93010  0.11410  0.15750  Biso   1.000  H
  H56      1.0000 0.89960  0.17460  0.18100  Biso   1.000  H
  C29      1.0000 0.88290  0.34350  0.10610  Biso   1.000  C
  H57      1.0000 0.87790  0.35330  0.14570  Biso   1.000  H
  H58      1.0000 0.89460  0.40790  0.09910  Biso   1.000  H
  C30      1.0000 0.81580  0.21400  0.04210  Biso   1.000  C
  H59      1.0000 0.78380  0.19370  0.99380  Biso   1.000  H
  H60      1.0000 0.80930  0.22210  0.08010  Biso   1.000  H
  N21      1.0000 0.12068  0.76480  0.21370  Biso   1.000  N
  N22      1.0000 0.07729  0.71250  0.27190  Biso   1.000  N
  N23      1.0000 0.14827  0.83850  0.33770  Biso   1.000  N
  N24      1.0000 0.16644  0.65720  0.33100  Biso   1.000  N
  C31      1.0000 0.14060  0.85780  0.26340  Biso   1.000  C
  H61      1.0000 0.17350  0.87530  0.27460  Biso   1.000  H
  H62      1.0000 0.11740  0.91510  0.23650  Biso   1.000  H
  C32      1.0000 0.07070  0.73300  0.19900  Biso   1.000  C
  H63      1.0000 0.04580  0.78780  0.17170  Biso   1.000  H
  H64      1.0000 0.05720  0.67240  0.16660  Biso   1.000  H
  C33      1.0000 0.15820  0.67890  0.25670  Biso   1.000  C
  H65      1.0000 0.14600  0.61760  0.22510  Biso   1.000  H
  H66      1.0000 0.19080  0.69860  0.26750  Biso   1.000  H
  C34      1.0000 0.11670  0.62910  0.31390  Biso   1.000  C
  H67      1.0000 0.12180  0.61470  0.36200  Biso   1.000  H
  H68      1.0000 0.10400  0.56710  0.28310  Biso   1.000  H
  C35      1.0000 0.18600  0.75200  0.37840  Biso   1.000  C
  H69      1.0000 0.21820  0.77160  0.38800  Biso   1.000  H
  H70      1.0000 0.19250  0.73910  0.42760  Biso   1.000  H
  C36      1.0000 0.09820  0.80670  0.32080  Biso   1.000  C
  H71      1.0000 0.07370  0.86220  0.29440  Biso   1.000  H
  H72      1.0000 0.10310  0.79430  0.36900  Biso   1.000  H
  Ag7      1.0000 0.17373  0.98119  0.41546  Biso   1.000  Ag
  Ag8      1.0000 0.11035  0.20036  0.60196  Biso   1.000  Ag
  N25      1.0000 0.07638  0.26370  0.36840  Biso   1.000  N
  N26      1.0000 0.11760  0.21950  0.50410  Biso   1.000  N
  N27      1.0000 0.14529  0.13190  0.43290  Biso   1.000  N
  N28      1.0000 0.16689  0.31360  0.46880  Biso   1.000  N
  C37      1.0000 0.13610  0.12100  0.49200  Biso   1.000  C
  H73      1.0000 0.16760  0.09920  0.54030  Biso   1.000  H
  H74      1.0000 0.11030  0.06850  0.47560  Biso   1.000  H
  C38      1.0000 0.15790  0.29970  0.52800  Biso   1.000  C
  H75      1.0000 0.14610  0.36410  0.53480  Biso   1.000  H
  H76      1.0000 0.18980  0.28120  0.57710  Biso   1.000  H
  C39      1.0000 0.06890  0.25110  0.42870  Biso   1.000  C
  H77      1.0000 0.05700  0.31510  0.43570  Biso   1.000  H
  H78      1.0000 0.04280  0.19910  0.41230  Biso   1.000  H
  C40      1.0000 0.09570  0.16660  0.35900  Biso   1.000  C
  H79      1.0000 0.06990  0.11410  0.34250  Biso   1.000  H
  H80      1.0000 0.10040  0.17460  0.31900  Biso   1.000  H
  C41      1.0000 0.11710  0.34350  0.39390  Biso   1.000  C
  H81      1.0000 0.12210  0.35330  0.35430  Biso   1.000  H
  H82      1.0000 0.10540  0.40790  0.40090  Biso   1.000  H
  C42      1.0000 0.18420  0.21400  0.45790  Biso   1.000  C
  H83      1.0000 0.21620  0.19370  0.50620  Biso   1.000  H
  H84      1.0000 0.19070  0.22210  0.41990  Biso   1.000  H
  N29      1.0000 0.87932  0.76480  0.28630  Biso   1.000  N
  N30      1.0000 0.92271  0.71250  0.22810  Biso   1.000  N
  N31      1.0000 0.85173  0.83850  0.16230  Biso   1.000  N
  N32      1.0000 0.83356  0.65720  0.16900  Biso   1.000  N
  C43      1.0000 0.85940  0.85780  0.23660  Biso   1.000  C
  H85      1.0000 0.82650  0.87530  0.22540  Biso   1.000  H
  H86      1.0000 0.88260  0.91510  0.26350  Biso   1.000  H
  C44      1.0000 0.92930  0.73300  0.30100  Biso   1.000  C
  H87      1.0000 0.95420  0.78780  0.32830  Biso   1.000  H
  H88      1.0000 0.94280  0.67240  0.33340  Biso   1.000  H
  C45      1.0000 0.84180  0.67890  0.24330  Biso   1.000  C
  H89      1.0000 0.85400  0.61760  0.27490  Biso   1.000  H
  H90      1.0000 0.80920  0.69860  0.23250  Biso   1.000  H
  C46      1.0000 0.88330  0.62910  0.18610  Biso   1.000  C
  H91      1.0000 0.87820  0.61470  0.13800  Biso   1.000  H
  H92      1.0000 0.89600  0.56710  0.21690  Biso   1.000  H
  C47      1.0000 0.81400  0.75200  0.12160  Biso   1.000  C
  H93      1.0000 0.78180  0.77160  0.11200  Biso   1.000  H
  H94      1.0000 0.80750  0.73910  0.07240  Biso   1.000  H
  C48      1.0000 0.90180  0.80670  0.17920  Biso   1.000  C
  H95      1.0000 0.92630  0.86220  0.20560  Biso   1.000  H
  H96      1.0000 0.89690  0.79430  0.13100  Biso   1.000  H
  Ag9      1.0000 0.00000  0.67989  0.75000  Biso   1.000  Ag
  Ag10     1.0000 0.00000  0.32220  0.75000  Biso   1.000  Ag
  Ag11     1.0000 0.00000  0.32011  0.25000  Biso   1.000  Ag
  Ag12     1.0000 0.00000  0.67780  0.25000  Biso   1.000  Ag
  Ag13     1.0000 0.67373  0.51881  0.91546  Biso   1.000  Ag
  Ag14     1.0000 0.61035  0.29964  0.10196  Biso   1.000  Ag
  N33      1.0000 0.57638  0.23630  0.86840  Biso   1.000  N
  N34      1.0000 0.61760  0.28050  0.00410  Biso   1.000  N
  N35      1.0000 0.64529  0.36810  0.93290  Biso   1.000  N
  N36      1.0000 0.66689  0.18640  0.96880  Biso   1.000  N
  C49      1.0000 0.63610  0.37900  0.99200  Biso   1.000  C
  H97      1.0000 0.66760  0.40080  0.04030  Biso   1.000  H
  H98      1.0000 0.61030  0.43150  0.97560  Biso   1.000  H
  C50      1.0000 0.65790  0.20030  0.02800  Biso   1.000  C
  H99      1.0000 0.64610  0.13590  0.03480  Biso   1.000  H
  H100     1.0000 0.68980  0.21880  0.07710  Biso   1.000  H
  C51      1.0000 0.56890  0.24890  0.92870  Biso   1.000  C
  H101     1.0000 0.55700  0.18490  0.93570  Biso   1.000  H
  H102     1.0000 0.54280  0.30090  0.91230  Biso   1.000  H
  C52      1.0000 0.59570  0.33340  0.85900  Biso   1.000  C
  H103     1.0000 0.56990  0.38590  0.84250  Biso   1.000  H
  H104     1.0000 0.60040  0.32540  0.81900  Biso   1.000  H
  C53      1.0000 0.61710  0.15650  0.89390  Biso   1.000  C
  H105     1.0000 0.62210  0.14670  0.85430  Biso   1.000  H
  H106     1.0000 0.60540  0.09210  0.90090  Biso   1.000  H
  C54      1.0000 0.68420  0.28600  0.95790  Biso   1.000  C
  H107     1.0000 0.71620  0.30630  0.00620  Biso   1.000  H
  H108     1.0000 0.69070  0.27790  0.91990  Biso   1.000  H
  N37      1.0000 0.37932  0.73520  0.78630  Biso   1.000  N
  N38      1.0000 0.42271  0.78750  0.72810  Biso   1.000  N
  N39      1.0000 0.35173  0.66150  0.66230  Biso   1.000  N
  N40      1.0000 0.33356  0.84280  0.66900  Biso   1.000  N
  C55      1.0000 0.35940  0.64220  0.73660  Biso   1.000  C
  H109     1.0000 0.32650  0.62470  0.72540  Biso   1.000  H
  H110     1.0000 0.38260  0.58490  0.76350  Biso   1.000  H
  C56      1.0000 0.42930  0.76700  0.80100  Biso   1.000  C
  H111     1.0000 0.45420  0.71220  0.82830  Biso   1.000  H
  H112     1.0000 0.44280  0.82760  0.83340  Biso   1.000  H
  C57      1.0000 0.34180  0.82110  0.74330  Biso   1.000  C
  H113     1.0000 0.35400  0.88240  0.77490  Biso   1.000  H
  H114     1.0000 0.30920  0.80140  0.73250  Biso   1.000  H
  C58      1.0000 0.38330  0.87090  0.68610  Biso   1.000  C
  H115     1.0000 0.37820  0.88530  0.63800  Biso   1.000  H
  H116     1.0000 0.39600  0.93290  0.71690  Biso   1.000  H
  C59      1.0000 0.31400  0.74800  0.62160  Biso   1.000  C
  H117     1.0000 0.28180  0.72840  0.61200  Biso   1.000  H
  H118     1.0000 0.30750  0.76090  0.57240  Biso   1.000  H
  C60      1.0000 0.40180  0.69330  0.67920  Biso   1.000  C
  H119     1.0000 0.42630  0.63780  0.70560  Biso   1.000  H
  H120     1.0000 0.39690  0.70570  0.63100  Biso   1.000  H
  Ag15     1.0000 0.32627  0.51881  0.58454  Biso   1.000  Ag
  Ag16     1.0000 0.38965  0.29964  0.39804  Biso   1.000  Ag
  N41      1.0000 0.42362  0.23630  0.63160  Biso   1.000  N
  N42      1.0000 0.38240  0.28050  0.49590  Biso   1.000  N
  N43      1.0000 0.35471  0.36810  0.56710  Biso   1.000  N
  N44      1.0000 0.33311  0.18640  0.53120  Biso   1.000  N
  C61      1.0000 0.36390  0.37900  0.50800  Biso   1.000  C
  H121     1.0000 0.33240  0.40080  0.45970  Biso   1.000  H
  H122     1.0000 0.38970  0.43150  0.52440  Biso   1.000  H
  C62      1.0000 0.34210  0.20030  0.47200  Biso   1.000  C
  H123     1.0000 0.35390  0.13590  0.46520  Biso   1.000  H
  H124     1.0000 0.31020  0.21880  0.42290  Biso   1.000  H
  C63      1.0000 0.43110  0.24890  0.57130  Biso   1.000  C
  H125     1.0000 0.44300  0.18490  0.56430  Biso   1.000  H
  H126     1.0000 0.45720  0.30090  0.58770  Biso   1.000  H
  C64      1.0000 0.40430  0.33340  0.64100  Biso   1.000  C
  H127     1.0000 0.43010  0.38590  0.65750  Biso   1.000  H
  H128     1.0000 0.39960  0.32540  0.68100  Biso   1.000  H
  C65      1.0000 0.38290  0.15650  0.60610  Biso   1.000  C
  H129     1.0000 0.37790  0.14670  0.64570  Biso   1.000  H
  H130     1.0000 0.39460  0.09210  0.59910  Biso   1.000  H
  C66      1.0000 0.31580  0.28600  0.54210  Biso   1.000  C
  H131     1.0000 0.28380  0.30630  0.49380  Biso   1.000  H
  H132     1.0000 0.30930  0.27790  0.58010  Biso   1.000  H
  N45      1.0000 0.62068  0.73520  0.71370  Biso   1.000  N
  N46      1.0000 0.57729  0.78750  0.77190  Biso   1.000  N
  N47      1.0000 0.64827  0.66150  0.83770  Biso   1.000  N
  N48      1.0000 0.66644  0.84280  0.83100  Biso   1.000  N
  C67      1.0000 0.64060  0.64220  0.76340  Biso   1.000  C
  H133     1.0000 0.67350  0.62470  0.77460  Biso   1.000  H
  H134     1.0000 0.61740  0.58490  0.73650  Biso   1.000  H
  C68      1.0000 0.57070  0.76700  0.69900  Biso   1.000  C
  H135     1.0000 0.54580  0.71220  0.67170  Biso   1.000  H
  H136     1.0000 0.55720  0.82760  0.66660  Biso   1.000  H
  C69      1.0000 0.65820  0.82110  0.75670  Biso   1.000  C
  H137     1.0000 0.64600  0.88240  0.72510  Biso   1.000  H
  H138     1.0000 0.69080  0.80140  0.76750  Biso   1.000  H
  C70      1.0000 0.61670  0.87090  0.81390  Biso   1.000  C
  H139     1.0000 0.62180  0.88530  0.86200  Biso   1.000  H
  H140     1.0000 0.60400  0.93290  0.78310  Biso   1.000  H
  C71      1.0000 0.68600  0.74800  0.87840  Biso   1.000  C
  H141     1.0000 0.71820  0.72840  0.88800  Biso   1.000  H
  H142     1.0000 0.69250  0.76090  0.92760  Biso   1.000  H
  C72      1.0000 0.59820  0.69330  0.82080  Biso   1.000  C
  H143     1.0000 0.57370  0.63780  0.79440  Biso   1.000  H
  H144     1.0000 0.60310  0.70570  0.86900  Biso   1.000  H
  Ag17     1.0000 0.32627  0.48119  0.08454  Biso   1.000  Ag
  Ag18     1.0000 0.38965  0.70036  0.89804  Biso   1.000  Ag
  N49      1.0000 0.42362  0.76370  0.13160  Biso   1.000  N
  N50      1.0000 0.38240  0.71950  0.99590  Biso   1.000  N
  N51      1.0000 0.35471  0.63190  0.06710  Biso   1.000  N
  N52      1.0000 0.33311  0.81360  0.03120  Biso   1.000  N
  C73      1.0000 0.36390  0.62100  0.00800  Biso   1.000  C
  H145     1.0000 0.33240  0.59920  0.95970  Biso   1.000  H
  H146     1.0000 0.38970  0.56850  0.02440  Biso   1.000  H
  C74      1.0000 0.34210  0.79970  0.97200  Biso   1.000  C
  H147     1.0000 0.35390  0.86410  0.96520  Biso   1.000  H
  H148     1.0000 0.31020  0.78120  0.92290  Biso   1.000  H
  C75      1.0000 0.43110  0.75110  0.07130  Biso   1.000  C
  H149     1.0000 0.44300  0.81510  0.06430  Biso   1.000  H
  H150     1.0000 0.45720  0.69910  0.08770  Biso   1.000  H
  C76      1.0000 0.40430  0.66660  0.14100  Biso   1.000  C
  H151     1.0000 0.43010  0.61410  0.15750  Biso   1.000  H
  H152     1.0000 0.39960  0.67460  0.18100  Biso   1.000  H
  C77      1.0000 0.38290  0.84350  0.10610  Biso   1.000  C
  H153     1.0000 0.37790  0.85330  0.14570  Biso   1.000  H
  H154     1.0000 0.39460  0.90790  0.09910  Biso   1.000  H
  C78      1.0000 0.31580  0.71400  0.04210  Biso   1.000  C
  H155     1.0000 0.28380  0.69370  0.99380  Biso   1.000  H
  H156     1.0000 0.30930  0.72210  0.08010  Biso   1.000  H
  N53      1.0000 0.62068  0.26480  0.21370  Biso   1.000  N
  N54      1.0000 0.57729  0.21250  0.27190  Biso   1.000  N
  N55      1.0000 0.64827  0.33850  0.33770  Biso   1.000  N
  N56      1.0000 0.66644  0.15720  0.33100  Biso   1.000  N
  C79      1.0000 0.64060  0.35780  0.26340  Biso   1.000  C
  H157     1.0000 0.67350  0.37530  0.27460  Biso   1.000  H
  H158     1.0000 0.61740  0.41510  0.23650  Biso   1.000  H
  C80      1.0000 0.57070  0.23300  0.19900  Biso   1.000  C
  H159     1.0000 0.54580  0.28780  0.17170  Biso   1.000  H
  H160     1.0000 0.55720  0.17240  0.16660  Biso   1.000  H
  C81      1.0000 0.65820  0.17890  0.25670  Biso   1.000  C
  H161     1.0000 0.64600  0.11760  0.22510  Biso   1.000  H
  H162     1.0000 0.69080  0.19860  0.26750  Biso   1.000  H
  C82      1.0000 0.61670  0.12910  0.31390  Biso   1.000  C
  H163     1.0000 0.62180  0.11470  0.36200  Biso   1.000  H
  H164     1.0000 0.60400  0.06710  0.28310  Biso   1.000  H
  C83      1.0000 0.68600  0.25200  0.37840  Biso   1.000  C
  H165     1.0000 0.71820  0.27160  0.38800  Biso   1.000  H
  H166     1.0000 0.69250  0.23910  0.42760  Biso   1.000  H
  C84      1.0000 0.59820  0.30670  0.32080  Biso   1.000  C
  H167     1.0000 0.57370  0.36220  0.29440  Biso   1.000  H
  H168     1.0000 0.60310  0.29430  0.36900  Biso   1.000  H
  Ag19     1.0000 0.67373  0.48119  0.41546  Biso   1.000  Ag
  Ag20     1.0000 0.61035  0.70036  0.60196  Biso   1.000  Ag
  N57      1.0000 0.57638  0.76370  0.36840  Biso   1.000  N
  N58      1.0000 0.61760  0.71950  0.50410  Biso   1.000  N
  N59      1.0000 0.64529  0.63190  0.43290  Biso   1.000  N
  N60      1.0000 0.66689  0.81360  0.46880  Biso   1.000  N
  C85      1.0000 0.63610  0.62100  0.49200  Biso   1.000  C
  H169     1.0000 0.66760  0.59920  0.54030  Biso   1.000  H
  H170     1.0000 0.61030  0.56850  0.47560  Biso   1.000  H
  C86      1.0000 0.65790  0.79970  0.52800  Biso   1.000  C
  H171     1.0000 0.64610  0.86410  0.53480  Biso   1.000  H
  H172     1.0000 0.68980  0.78120  0.57710  Biso   1.000  H
  C87      1.0000 0.56890  0.75110  0.42870  Biso   1.000  C
  H173     1.0000 0.55700  0.81510  0.43570  Biso   1.000  H
  H174     1.0000 0.54280  0.69910  0.41230  Biso   1.000  H
  C88      1.0000 0.59570  0.66660  0.35900  Biso   1.000  C
  H175     1.0000 0.56990  0.61410  0.34250  Biso   1.000  H
  H176     1.0000 0.60040  0.67460  0.31900  Biso   1.000  H
  C89      1.0000 0.61710  0.84350  0.39390  Biso   1.000  C
  H177     1.0000 0.62210  0.85330  0.35430  Biso   1.000  H
  H178     1.0000 0.60540  0.90790  0.40090  Biso   1.000  H
  C90      1.0000 0.68420  0.71400  0.45790  Biso   1.000  C
  H179     1.0000 0.71620  0.69370  0.50620  Biso   1.000  H
  H180     1.0000 0.69070  0.72210  0.41990  Biso   1.000  H
  N61      1.0000 0.37932  0.26480  0.28630  Biso   1.000  N
  N62      1.0000 0.42271  0.21250  0.22810  Biso   1.000  N
  N63      1.0000 0.35173  0.33850  0.16230  Biso   1.000  N
  N64      1.0000 0.33356  0.15720  0.16900  Biso   1.000  N
  C91      1.0000 0.35940  0.35780  0.23660  Biso   1.000  C
  H181     1.0000 0.32650  0.37530  0.22540  Biso   1.000  H
  H182     1.0000 0.38260  0.41510  0.26350  Biso   1.000  H
  C92      1.0000 0.42930  0.23300  0.30100  Biso   1.000  C
  H183     1.0000 0.45420  0.28780  0.32830  Biso   1.000  H
  H184     1.0000 0.44280  0.17240  0.33340  Biso   1.000  H
  C93      1.0000 0.34180  0.17890  0.24330  Biso   1.000  C
  H185     1.0000 0.35400  0.11760  0.27490  Biso   1.000  H
  H186     1.0000 0.30920  0.19860  0.23250  Biso   1.000  H
  C94      1.0000 0.38330  0.12910  0.18610  Biso   1.000  C
  H187     1.0000 0.37820  0.11470  0.13800  Biso   1.000  H
  H188     1.0000 0.39600  0.06710  0.21690  Biso   1.000  H
  C95      1.0000 0.31400  0.25200  0.12160  Biso   1.000  C
  H189     1.0000 0.28180  0.27160  0.11200  Biso   1.000  H
  H190     1.0000 0.30750  0.23910  0.07240  Biso   1.000  H
  C96      1.0000 0.40180  0.30670  0.17920  Biso   1.000  C
  H191     1.0000 0.42630  0.36220  0.20560  Biso   1.000  H
  H192     1.0000 0.39690  0.29430  0.13100  Biso   1.000  H
  Ag21     1.0000 0.50000  0.17989  0.75000  Biso   1.000  Ag
  Ag22     1.0000 0.50000  0.82220  0.75000  Biso   1.000  Ag
  Ag23     1.0000 0.50000  0.82011  0.25000  Biso   1.000  Ag
  Ag24     1.0000 0.50000  0.17780  0.25000  Biso   1.000  Ag
