data_BIXCOC_clean
_audit_creation_date              2015-10-16
_audit_creation_method            'Materials Studio'
_symmetry_space_group_name_H-M    'P1'
_symmetry_Int_Tables_number       1
_symmetry_cell_setting            triclinic
loop_
_symmetry_equiv_pos_as_xyz
  x,y,z
_cell_length_a                    8.3977
_cell_length_b                    9.4360
_cell_length_c                    20.3380
_cell_angle_alpha                 89.9900
_cell_angle_beta                  79.6630
_cell_angle_gamma                 88.4380
loop_
_atom_site_label
_atom_site_type_symbol
_atom_site_fract_x
_atom_site_fract_y
_atom_site_fract_z
_atom_site_U_iso_or_equiv
_atom_site_adp_type
_atom_site_occupancy
Co1    Co    0.00000   0.00000   0.00000   0.01267  Uiso   1.00
H1     H     0.01360   0.28930   0.24250   0.01267  Uiso   1.00
H2     H     0.05120   0.14530   0.52720   0.01267  Uiso   1.00
H3     H     0.28700   0.98860   0.81700   0.01267  Uiso   1.00
H4     H     0.98640   0.71070   0.75750   0.01267  Uiso   1.00
H5     H     0.94880   0.85470   0.47280   0.01267  Uiso   1.00
H6     H     0.42830   0.00070   0.70850   0.01267  Uiso   1.00
H7     H     0.34680   0.87180   0.62460   0.01267  Uiso   1.00
H8     H     0.12970   0.27540   0.61270   0.01267  Uiso   1.00
H9     H     0.65320   0.12820   0.37540   0.01267  Uiso   1.00
H10    H     0.87030   0.72460   0.38730   0.01267  Uiso   1.00
H11    H     0.71300   0.01140   0.18300   0.01267  Uiso   1.00
H12    H     0.57170   0.99930   0.29150   0.01267  Uiso   1.00
C1     C     0.16220   0.77830   0.68360   0.01267  Uiso   1.00
C2     C     0.33900   0.94320   0.71840   0.01267  Uiso   1.00
C3     C     0.94570   0.22800   0.41980   0.01267  Uiso   1.00
C4     C     0.70850   0.13470   0.33170   0.01267  Uiso   1.00
C5     C     0.08460   0.46720   0.57720   0.01267  Uiso   1.00
C6     C     0.95540   0.75620   0.47350   0.01267  Uiso   1.00
C7     C     0.02520   0.85200   0.86820   0.01267  Uiso   1.00
C8     C     0.07460   0.76950   0.74790   0.01267  Uiso   1.00
C9     C     0.66100   0.05680   0.28160   0.01267  Uiso   1.00
C10    C     0.91540   0.53280   0.42280   0.01267  Uiso   1.00
C11    C     0.97540   0.45980   0.47400   0.01267  Uiso   1.00
C12    C     0.98840   0.31150   0.47540   0.01267  Uiso   1.00
C13    C     0.01160   0.68850   0.52460   0.01267  Uiso   1.00
C14    C     0.02460   0.54020   0.52600   0.01267  Uiso   1.00
C15    C     0.74540   0.06390   0.21670   0.01267  Uiso   1.00
C16    C     0.83780   0.22170   0.31640   0.01267  Uiso   1.00
C17    C     0.14080   0.54990   0.63040   0.01267  Uiso   1.00
C18    C     0.05430   0.77200   0.58020   0.01267  Uiso   1.00
C19    C     0.12190   0.85080   0.79770   0.01267  Uiso   1.00
C20    C     0.92540   0.23050   0.25210   0.01267  Uiso   1.00
C21    C     0.87810   0.14920   0.20230   0.01267  Uiso   1.00
C22    C     0.29150   0.86530   0.66830   0.01267  Uiso   1.00
C23    C     0.09250   0.32230   0.57800   0.01267  Uiso   1.00
C24    C     0.85920   0.45010   0.36960   0.01267  Uiso   1.00
C25    C     0.90750   0.67770   0.42200   0.01267  Uiso   1.00
C26    C     0.25460   0.93610   0.78330   0.01267  Uiso   1.00
C27    C     0.97480   0.14800   0.13180   0.01267  Uiso   1.00
C28    C     0.04460   0.24380   0.52650   0.01267  Uiso   1.00
N1     N     0.88550   0.30380   0.36970   0.01267  Uiso   1.00
N2     N     0.11450   0.69620   0.63030   0.01267  Uiso   1.00
O1     O     0.96250   0.10040   0.41661   0.01267  Uiso   1.00
O2     O     0.20780   0.49400   0.67212   0.01267  Uiso   1.00
O3     O     0.79220   0.50600   0.32788   0.01267  Uiso   1.00
O4     O     0.03750   0.89960   0.58339   0.01267  Uiso   1.00
O5     O     0.10190   0.21230   0.11931   0.01267  Uiso   1.00
O6     O     0.89810   0.78770   0.88069   0.01267  Uiso   1.00
O7     O     0.91590   0.07260   0.09155   0.01267  Uiso   1.00
O8     O     0.08410   0.92740   0.90845   0.01267  Uiso   1.00
Co2    Co    0.50000   0.00000   0.00000   0.01267  Uiso   1.00
H13    H     0.76960   0.02300   0.82770   0.01267  Uiso   1.00
H14    H     0.08460   0.00150   0.27930   0.01267  Uiso   1.00
H15    H     0.35780   0.27580   0.39250   0.01267  Uiso   1.00
H16    H     0.53350   0.69950   0.23800   0.01267  Uiso   1.00
H17    H     0.43260   0.14730   0.48040   0.01267  Uiso   1.00
H18    H     0.46650   0.30050   0.76200   0.01267  Uiso   1.00
H19    H     0.16230   0.87330   0.36580   0.01267  Uiso   1.00
H20    H     0.83770   0.12670   0.63420   0.01267  Uiso   1.00
H21    H     0.56740   0.85270   0.51960   0.01267  Uiso   1.00
H22    H     0.64220   0.72420   0.60750   0.01267  Uiso   1.00
H23    H     0.23040   0.97700   0.17230   0.01267  Uiso   1.00
H24    H     0.91540   0.99850   0.72070   0.01267  Uiso   1.00
C29    C     0.60430   0.16300   0.80610   0.01267  Uiso   1.00
C30    C     0.39870   0.32240   0.42590   0.01267  Uiso   1.00
C31    C     0.47690   0.53890   0.47320   0.01267  Uiso   1.00
C32    C     0.50670   0.16960   0.87610   0.01267  Uiso   1.00
C33    C     0.58500   0.53320   0.57670   0.01267  Uiso   1.00
C34    C     0.26240   0.92560   0.20700   0.01267  Uiso   1.00
C35    C     0.82550   0.05990   0.72900   0.01267  Uiso   1.00
C36    C     0.49530   0.68650   0.47140   0.01267  Uiso   1.00
C37    C     0.63460   0.45270   0.63270   0.01267  Uiso   1.00
C38    C     0.52310   0.46110   0.52680   0.01267  Uiso   1.00
C39    C     0.77970   0.13670   0.67750   0.01267  Uiso   1.00
C40    C     0.44380   0.24510   0.47880   0.01267  Uiso   1.00
C41    C     0.36540   0.54730   0.36730   0.01267  Uiso   1.00
C42    C     0.60130   0.67760   0.57410   0.01267  Uiso   1.00
C43    C     0.49330   0.83040   0.12390   0.01267  Uiso   1.00
C44    C     0.17450   0.94010   0.27100   0.01267  Uiso   1.00
C45    C     0.39570   0.83700   0.19390   0.01267  Uiso   1.00
C46    C     0.64770   0.22800   0.69070   0.01267  Uiso   1.00
C47    C     0.45330   0.76860   0.41440   0.01267  Uiso   1.00
C48    C     0.50470   0.31350   0.52860   0.01267  Uiso   1.00
C49    C     0.54670   0.23140   0.58560   0.01267  Uiso   1.00
C50    C     0.55620   0.75490   0.52120   0.01267  Uiso   1.00
C51    C     0.22030   0.86330   0.32250   0.01267  Uiso   1.00
C52    C     0.73760   0.07440   0.79300   0.01267  Uiso   1.00
C53    C     0.35230   0.77200   0.30930   0.01267  Uiso   1.00
C54    C     0.41500   0.46680   0.42330   0.01267  Uiso   1.00
C55    C     0.55780   0.24060   0.75400   0.01267  Uiso   1.00
C56    C     0.44220   0.75940   0.24600   0.01267  Uiso   1.00
N3     N     0.39770   0.69280   0.36463   0.01267  Uiso   1.00
N4     N     0.60230   0.30720   0.63537   0.01267  Uiso   1.00
O9     O     0.63590   0.78580   0.11470   0.01267  Uiso   1.00
O10    O     0.36410   0.21420   0.88530   0.01267  Uiso   1.00
O11    O     0.41980   0.87260   0.07781   0.01267  Uiso   1.00
O12    O     0.53320   0.10380   0.58889   0.01267  Uiso   1.00
O13    O     0.29760   0.49320   0.32662   0.01267  Uiso   1.00
O14    O     0.58020   0.12740   0.92219   0.01267  Uiso   1.00
O15    O     0.70240   0.50680   0.67338   0.01267  Uiso   1.00
O16    O     0.46680   0.89620   0.41111   0.01267  Uiso   1.00
