data_image0
_cell_length_a       9.99
_cell_length_b       15.153
_cell_length_c       20.307
_cell_angle_alpha    90
_cell_angle_beta     94.152
_cell_angle_gamma    90

_symmetry_space_group_name_H-M    "P 1"
_symmetry_int_tables_number       1

loop_
  _symmetry_equiv_pos_as_xyz
  'x, y, z'

loop_
  _atom_site_label
  _atom_site_occupancy
  _atom_site_fract_x
  _atom_site_fract_y
  _atom_site_fract_z
  _atom_site_thermal_displace_type
  _atom_site_B_iso_or_equiv
  _atom_site_type_symbol
  C1       1.0000 0.27750  0.04560  0.09000  Biso   1.000  C
  H1       1.0000 0.25810  0.04780  0.13400  Biso   1.000  H
  C2       1.0000 0.40080  0.01750  0.07500  Biso   1.000  C
  H2       1.0000 0.46390  0.00050  0.10860  Biso   1.000  H
  C3       1.0000 0.43290  0.01420  0.00900  Biso   1.000  C
  C4       1.0000 0.33390  0.04040  0.96190  Biso   1.000  C
  H3       1.0000 0.35040  0.04020  0.91740  Biso   1.000  H
  C5       1.0000 0.21240  0.06650  0.98090  Biso   1.000  C
  H4       1.0000 0.14680  0.08240  0.94820  Biso   1.000  H
  C6       1.0000 0.78240  0.17700  0.99030  Biso   1.000  C
  H5       1.0000 0.83460  0.16600  0.95510  Biso   1.000  H
  C7       1.0000 0.65550  0.21180  0.97710  Biso   1.000  C
  H6       1.0000 0.62380  0.22520  0.93410  Biso   1.000  H
  C8       1.0000 0.57490  0.22660  0.03050  Biso   1.000  C
  C9       1.0000 0.63010  0.20590  0.09240  Biso   1.000  C
  H7       1.0000 0.58030  0.21520  0.12870  Biso   1.000  H
  C10      1.0000 0.75660  0.17210  0.10190  Biso   1.000  C
  H8       1.0000 0.79010  0.15820  0.14460  Biso   1.000  H
  C11      1.0000 0.23280  0.31610  0.05820  Biso   1.000  C
  H9       1.0000 0.18330  0.33050  0.09370  Biso   1.000  H
  C12      1.0000 0.36080  0.28510  0.07080  Biso   1.000  C
  H10      1.0000 0.39660  0.27960  0.11420  Biso   1.000  H
  C13      1.0000 0.43800  0.26170  0.01880  Biso   1.000  C
  C14      1.0000 0.38090  0.27340  0.95660  Biso   1.000  C
  H11      1.0000 0.42870  0.25970  0.92040  Biso   1.000  H
  C15      1.0000 0.25090  0.30580  0.94740  Biso   1.000  C
  H12      1.0000 0.21400  0.31360  0.90440  Biso   1.000  H
  C16      1.0000 0.74710  0.43390  0.93350  Biso   1.000  C
  H13      1.0000 0.77950  0.42420  0.89240  Biso   1.000  H
  C17      1.0000 0.61870  0.46710  0.93660  Biso   1.000  C
  H14      1.0000 0.56630  0.47930  0.89790  Biso   1.000  H
  C18      1.0000 0.56800  0.48200  0.99790  Biso   1.000  C
  C19      1.0000 0.65230  0.46150  0.05390  Biso   1.000  C
  H15      1.0000 0.62390  0.47000  0.09600  Biso   1.000  H
  C20      1.0000 0.77790  0.42850  0.04530  Biso   1.000  C
  H16      1.0000 0.83240  0.41450  0.08290  Biso   1.000  H
  Cu1      1.0000 0.01062  0.11160  0.06484  Biso   1.000  Cu
  Cu2      1.0000 0.00038  0.37070  0.98112  Biso   1.000  Cu
  N1       1.0000 0.18200  0.07060  0.04311  Biso   1.000  N
  N2       1.0000 0.83410  0.15820  0.05170  Biso   1.000  N
  N3       1.0000 0.17600  0.32660  0.99720  Biso   1.000  N
  N4       1.0000 0.82650  0.41530  0.98790  Biso   1.000  N
  C21      1.0000 0.72250  0.95440  0.91000  Biso   1.000  C
  H17      1.0000 0.74190  0.95220  0.86600  Biso   1.000  H
  C22      1.0000 0.59920  0.98250  0.92500  Biso   1.000  C
  H18      1.0000 0.53610  0.99950  0.89140  Biso   1.000  H
  C23      1.0000 0.56710  0.98580  0.99100  Biso   1.000  C
  C24      1.0000 0.66610  0.95960  0.03810  Biso   1.000  C
  H19      1.0000 0.64960  0.95980  0.08260  Biso   1.000  H
  C25      1.0000 0.78760  0.93350  0.01910  Biso   1.000  C
  H20      1.0000 0.85320  0.91760  0.05180  Biso   1.000  H
  C26      1.0000 0.21760  0.82300  0.00970  Biso   1.000  C
  H21      1.0000 0.16540  0.83400  0.04490  Biso   1.000  H
  C27      1.0000 0.34450  0.78820  0.02290  Biso   1.000  C
  H22      1.0000 0.37620  0.77480  0.06590  Biso   1.000  H
  C28      1.0000 0.42510  0.77340  0.96950  Biso   1.000  C
  C29      1.0000 0.36990  0.79410  0.90760  Biso   1.000  C
  H23      1.0000 0.41970  0.78480  0.87130  Biso   1.000  H
  C30      1.0000 0.24340  0.82790  0.89810  Biso   1.000  C
  H24      1.0000 0.20990  0.84180  0.85540  Biso   1.000  H
  C31      1.0000 0.76720  0.68390  0.94180  Biso   1.000  C
  H25      1.0000 0.81670  0.66950  0.90630  Biso   1.000  H
  C32      1.0000 0.63920  0.71490  0.92920  Biso   1.000  C
  H26      1.0000 0.60340  0.72040  0.88580  Biso   1.000  H
  C33      1.0000 0.56200  0.73830  0.98120  Biso   1.000  C
  C34      1.0000 0.61910  0.72660  0.04340  Biso   1.000  C
  H27      1.0000 0.57130  0.74030  0.07960  Biso   1.000  H
  C35      1.0000 0.74910  0.69420  0.05260  Biso   1.000  C
  H28      1.0000 0.78600  0.68640  0.09560  Biso   1.000  H
  C36      1.0000 0.25290  0.56610  0.06650  Biso   1.000  C
  H29      1.0000 0.22050  0.57580  0.10760  Biso   1.000  H
  C37      1.0000 0.38130  0.53290  0.06340  Biso   1.000  C
  H30      1.0000 0.43370  0.52070  0.10210  Biso   1.000  H
  C38      1.0000 0.43200  0.51800  0.00210  Biso   1.000  C
  C39      1.0000 0.34770  0.53850  0.94610  Biso   1.000  C
  H31      1.0000 0.37610  0.53000  0.90400  Biso   1.000  H
  C40      1.0000 0.22210  0.57150  0.95470  Biso   1.000  C
  H32      1.0000 0.16760  0.58550  0.91710  Biso   1.000  H
  Cu3      1.0000 0.98938  0.88840  0.93516  Biso   1.000  Cu
  Cu4      1.0000 0.99962  0.62930  0.01888  Biso   1.000  Cu
  N5       1.0000 0.81800  0.92940  0.95689  Biso   1.000  N
  N6       1.0000 0.16590  0.84180  0.94830  Biso   1.000  N
  N7       1.0000 0.82400  0.67340  0.00280  Biso   1.000  N
  N8       1.0000 0.17350  0.58470  0.01210  Biso   1.000  N
  C41      1.0000 0.22250  0.54560  0.41000  Biso   1.000  C
  H33      1.0000 0.24190  0.54780  0.36600  Biso   1.000  H
  C42      1.0000 0.09920  0.51750  0.42500  Biso   1.000  C
  H34      1.0000 0.03610  0.50050  0.39140  Biso   1.000  H
  C43      1.0000 0.06710  0.51420  0.49100  Biso   1.000  C
  C44      1.0000 0.16610  0.54040  0.53810  Biso   1.000  C
  H35      1.0000 0.14960  0.54020  0.58260  Biso   1.000  H
  C45      1.0000 0.28760  0.56650  0.51910  Biso   1.000  C
  H36      1.0000 0.35320  0.58240  0.55180  Biso   1.000  H
  C46      1.0000 0.71760  0.67700  0.50970  Biso   1.000  C
  H37      1.0000 0.66540  0.66600  0.54490  Biso   1.000  H
  C47      1.0000 0.84450  0.71180  0.52290  Biso   1.000  C
  H38      1.0000 0.87620  0.72520  0.56590  Biso   1.000  H
  C48      1.0000 0.92510  0.72660  0.46950  Biso   1.000  C
  C49      1.0000 0.86990  0.70590  0.40760  Biso   1.000  C
  H39      1.0000 0.91970  0.71520  0.37130  Biso   1.000  H
  C50      1.0000 0.74340  0.67210  0.39810  Biso   1.000  C
  H40      1.0000 0.70990  0.65820  0.35540  Biso   1.000  H
  C51      1.0000 0.26720  0.81610  0.44180  Biso   1.000  C
  H41      1.0000 0.31670  0.83050  0.40630  Biso   1.000  H
  C52      1.0000 0.13920  0.78510  0.42920  Biso   1.000  C
  H42      1.0000 0.10340  0.77960  0.38580  Biso   1.000  H
  C53      1.0000 0.06200  0.76170  0.48120  Biso   1.000  C
  C54      1.0000 0.11910  0.77340  0.54340  Biso   1.000  C
  H43      1.0000 0.07130  0.75970  0.57960  Biso   1.000  H
  C55      1.0000 0.24910  0.80580  0.55260  Biso   1.000  C
  H44      1.0000 0.28600  0.81360  0.59560  Biso   1.000  H
  C56      1.0000 0.75290  0.93390  0.56650  Biso   1.000  C
  H45      1.0000 0.72050  0.92420  0.60760  Biso   1.000  H
  C57      1.0000 0.88130  0.96710  0.56340  Biso   1.000  C
  H46      1.0000 0.93370  0.97930  0.60210  Biso   1.000  H
  C58      1.0000 0.93200  0.98200  0.50210  Biso   1.000  C
  C59      1.0000 0.84770  0.96150  0.44610  Biso   1.000  C
  H47      1.0000 0.87610  0.97000  0.40400  Biso   1.000  H
  C60      1.0000 0.72210  0.92850  0.45470  Biso   1.000  C
  H48      1.0000 0.66760  0.91450  0.41710  Biso   1.000  H
  Cu5      1.0000 0.48938  0.61160  0.43516  Biso   1.000  Cu
  Cu6      1.0000 0.49962  0.87070  0.51888  Biso   1.000  Cu
  N9       1.0000 0.31800  0.57060  0.45689  Biso   1.000  N
  N10      1.0000 0.66590  0.65820  0.44830  Biso   1.000  N
  N11      1.0000 0.32400  0.82660  0.50280  Biso   1.000  N
  N12      1.0000 0.67350  0.91530  0.51210  Biso   1.000  N
  C61      1.0000 0.77750  0.45440  0.59000  Biso   1.000  C
  H49      1.0000 0.75810  0.45220  0.63400  Biso   1.000  H
  C62      1.0000 0.90080  0.48250  0.57500  Biso   1.000  C
  H50      1.0000 0.96390  0.49950  0.60860  Biso   1.000  H
  C63      1.0000 0.93290  0.48580  0.50900  Biso   1.000  C
  C64      1.0000 0.83390  0.45960  0.46190  Biso   1.000  C
  H51      1.0000 0.85040  0.45980  0.41740  Biso   1.000  H
  C65      1.0000 0.71240  0.43350  0.48090  Biso   1.000  C
  H52      1.0000 0.64680  0.41760  0.44820  Biso   1.000  H
  C66      1.0000 0.28240  0.32300  0.49030  Biso   1.000  C
  H53      1.0000 0.33460  0.33400  0.45510  Biso   1.000  H
  C67      1.0000 0.15550  0.28820  0.47710  Biso   1.000  C
  H54      1.0000 0.12380  0.27480  0.43410  Biso   1.000  H
  C68      1.0000 0.07490  0.27340  0.53050  Biso   1.000  C
  C69      1.0000 0.13010  0.29410  0.59240  Biso   1.000  C
  H55      1.0000 0.08030  0.28480  0.62870  Biso   1.000  H
  C70      1.0000 0.25660  0.32790  0.60190  Biso   1.000  C
  H56      1.0000 0.29010  0.34180  0.64460  Biso   1.000  H
  C71      1.0000 0.73280  0.18390  0.55820  Biso   1.000  C
  H57      1.0000 0.68330  0.16950  0.59370  Biso   1.000  H
  C72      1.0000 0.86080  0.21490  0.57080  Biso   1.000  C
  H58      1.0000 0.89660  0.22040  0.61420  Biso   1.000  H
  C73      1.0000 0.93800  0.23830  0.51880  Biso   1.000  C
  C74      1.0000 0.88090  0.22660  0.45660  Biso   1.000  C
  H59      1.0000 0.92870  0.24030  0.42040  Biso   1.000  H
  C75      1.0000 0.75090  0.19420  0.44740  Biso   1.000  C
  H60      1.0000 0.71400  0.18640  0.40440  Biso   1.000  H
  C76      1.0000 0.24710  0.06610  0.43350  Biso   1.000  C
  H61      1.0000 0.27950  0.07580  0.39240  Biso   1.000  H
  C77      1.0000 0.11870  0.03290  0.43660  Biso   1.000  C
  H62      1.0000 0.06630  0.02070  0.39790  Biso   1.000  H
  C78      1.0000 0.06800  0.01800  0.49790  Biso   1.000  C
  C79      1.0000 0.15230  0.03850  0.55390  Biso   1.000  C
  H63      1.0000 0.12390  0.03000  0.59600  Biso   1.000  H
  C80      1.0000 0.27790  0.07150  0.54530  Biso   1.000  C
  H64      1.0000 0.33240  0.08550  0.58290  Biso   1.000  H
  Cu7      1.0000 0.51062  0.38840  0.56484  Biso   1.000  Cu
  Cu8      1.0000 0.50038  0.12930  0.48112  Biso   1.000  Cu
  N13      1.0000 0.68200  0.42940  0.54311  Biso   1.000  N
  N14      1.0000 0.33410  0.34180  0.55170  Biso   1.000  N
  N15      1.0000 0.67600  0.17340  0.49720  Biso   1.000  N
  N16      1.0000 0.32650  0.08470  0.48790  Biso   1.000  N
