data_image0
_cell_length_a       13.7608
_cell_length_b       8.9938
_cell_length_c       16.4834
_cell_angle_alpha    90
_cell_angle_beta     107.169
_cell_angle_gamma    90

_symmetry_space_group_name_H-M    "P 1"
_symmetry_int_tables_number       1

loop_
  _symmetry_equiv_pos_as_xyz
  'x, y, z'

loop_
  _atom_site_label
  _atom_site_occupancy
  _atom_site_fract_x
  _atom_site_fract_y
  _atom_site_fract_z
  _atom_site_thermal_displace_type
  _atom_site_B_iso_or_equiv
  _atom_site_type_symbol
  C1       1.0000 0.73750  0.40760  0.27820  Biso   1.000  C
  H1       1.0000 0.71060  0.32210  0.24820  Biso   1.000  H
  C2       1.0000 0.81570  0.48010  0.25830  Biso   1.000  C
  H2       1.0000 0.84060  0.44390  0.21540  Biso   1.000  H
  C3       1.0000 0.85690  0.60670  0.30220  Biso   1.000  C
  H3       1.0000 0.90910  0.65730  0.28900  Biso   1.000  H
  C4       1.0000 0.81950  0.65730  0.36640  Biso   1.000  C
  C5       1.0000 0.74040  0.57690  0.38190  Biso   1.000  C
  H4       1.0000 0.71490  0.61010  0.42510  Biso   1.000  H
  C6       1.0000 0.85370  0.79140  0.41750  Biso   1.000  C
  H5       1.0000 0.81670  0.81990  0.45390  Biso   1.000  H
  C7       1.0000 0.94560  0.00540  0.47040  Biso   1.000  C
  H6       1.0000 0.89860  0.00310  0.50500  Biso   1.000  H
  C8       1.0000 0.92540  0.14710  0.41600  Biso   1.000  C
  H7       1.0000 0.96860  0.14740  0.37890  Biso   1.000  H
  H8       1.0000 0.85520  0.14760  0.38070  Biso   1.000  H
  C9       1.0000 0.94590  0.28570  0.47060  Biso   1.000  C
  H9       1.0000 0.89860  0.29020  0.50400  Biso   1.000  H
  H10      1.0000 0.93530  0.37300  0.43450  Biso   1.000  H
  N1       1.0000 0.69870  0.45560  0.33930  Biso   1.000  N
  N2       1.0000 0.92890  0.87210  0.41677  Biso   1.000  N
  Ag1      1.0000 0.54768  0.35091  0.34521  Biso   1.000  Ag
  C10      1.0000 0.23750  0.90760  0.27820  Biso   1.000  C
  H11      1.0000 0.21060  0.82210  0.24820  Biso   1.000  H
  C11      1.0000 0.31570  0.98010  0.25830  Biso   1.000  C
  H12      1.0000 0.34060  0.94390  0.21540  Biso   1.000  H
  C12      1.0000 0.35690  0.10670  0.30220  Biso   1.000  C
  H13      1.0000 0.40910  0.15730  0.28900  Biso   1.000  H
  C13      1.0000 0.31950  0.15730  0.36640  Biso   1.000  C
  C14      1.0000 0.24040  0.07690  0.38190  Biso   1.000  C
  H14      1.0000 0.21490  0.11010  0.42510  Biso   1.000  H
  C15      1.0000 0.35370  0.29140  0.41750  Biso   1.000  C
  H15      1.0000 0.31670  0.31990  0.45390  Biso   1.000  H
  C16      1.0000 0.44560  0.50540  0.47040  Biso   1.000  C
  H16      1.0000 0.39860  0.50310  0.50500  Biso   1.000  H
  C17      1.0000 0.42540  0.64710  0.41600  Biso   1.000  C
  H17      1.0000 0.46860  0.64740  0.37890  Biso   1.000  H
  H18      1.0000 0.35520  0.64760  0.38070  Biso   1.000  H
  C18      1.0000 0.44590  0.78570  0.47060  Biso   1.000  C
  H19      1.0000 0.39860  0.79020  0.50400  Biso   1.000  H
  H20      1.0000 0.43530  0.87300  0.43450  Biso   1.000  H
  N3       1.0000 0.19870  0.95560  0.33930  Biso   1.000  N
  N4       1.0000 0.42890  0.37210  0.41677  Biso   1.000  N
  Ag2      1.0000 0.04768  0.85091  0.34521  Biso   1.000  Ag
  C19      1.0000 0.26250  0.40760  0.72180  Biso   1.000  C
  H21      1.0000 0.28940  0.32210  0.75180  Biso   1.000  H
  C20      1.0000 0.18430  0.48010  0.74170  Biso   1.000  C
  H22      1.0000 0.15940  0.44390  0.78460  Biso   1.000  H
  C21      1.0000 0.14310  0.60670  0.69780  Biso   1.000  C
  H23      1.0000 0.09090  0.65730  0.71100  Biso   1.000  H
  C22      1.0000 0.18050  0.65730  0.63360  Biso   1.000  C
  C23      1.0000 0.25960  0.57690  0.61810  Biso   1.000  C
  H24      1.0000 0.28510  0.61010  0.57490  Biso   1.000  H
  C24      1.0000 0.14630  0.79140  0.58250  Biso   1.000  C
  H25      1.0000 0.18330  0.81990  0.54610  Biso   1.000  H
  C25      1.0000 0.05440  0.00540  0.52960  Biso   1.000  C
  H26      1.0000 0.10140  0.00310  0.49500  Biso   1.000  H
  C26      1.0000 0.07460  0.14710  0.58400  Biso   1.000  C
  H27      1.0000 0.03140  0.14740  0.62110  Biso   1.000  H
  H28      1.0000 0.14480  0.14760  0.61930  Biso   1.000  H
  C27      1.0000 0.05410  0.28570  0.52940  Biso   1.000  C
  H29      1.0000 0.10140  0.29020  0.49600  Biso   1.000  H
  H30      1.0000 0.06470  0.37300  0.56550  Biso   1.000  H
  N5       1.0000 0.30130  0.45560  0.66070  Biso   1.000  N
  N6       1.0000 0.07110  0.87210  0.58323  Biso   1.000  N
  Ag3      1.0000 0.45232  0.35091  0.65479  Biso   1.000  Ag
  C28      1.0000 0.76250  0.90760  0.72180  Biso   1.000  C
  H31      1.0000 0.78940  0.82210  0.75180  Biso   1.000  H
  C29      1.0000 0.68430  0.98010  0.74170  Biso   1.000  C
  H32      1.0000 0.65940  0.94390  0.78460  Biso   1.000  H
  C30      1.0000 0.64310  0.10670  0.69780  Biso   1.000  C
  H33      1.0000 0.59090  0.15730  0.71100  Biso   1.000  H
  C31      1.0000 0.68050  0.15730  0.63360  Biso   1.000  C
  C32      1.0000 0.75960  0.07690  0.61810  Biso   1.000  C
  H34      1.0000 0.78510  0.11010  0.57490  Biso   1.000  H
  C33      1.0000 0.64630  0.29140  0.58250  Biso   1.000  C
  H35      1.0000 0.68330  0.31990  0.54610  Biso   1.000  H
  C34      1.0000 0.55440  0.50540  0.52960  Biso   1.000  C
  H36      1.0000 0.60140  0.50310  0.49500  Biso   1.000  H
  C35      1.0000 0.57460  0.64710  0.58400  Biso   1.000  C
  H37      1.0000 0.53140  0.64740  0.62110  Biso   1.000  H
  H38      1.0000 0.64480  0.64760  0.61930  Biso   1.000  H
  C36      1.0000 0.55410  0.78570  0.52940  Biso   1.000  C
  H39      1.0000 0.60140  0.79020  0.49600  Biso   1.000  H
  H40      1.0000 0.56470  0.87300  0.56550  Biso   1.000  H
  N7       1.0000 0.80130  0.95560  0.66070  Biso   1.000  N
  N8       1.0000 0.57110  0.37210  0.58323  Biso   1.000  N
  Ag4      1.0000 0.95232  0.85091  0.65479  Biso   1.000  Ag
