data_image0
_cell_length_a       15.037
_cell_length_b       19.075
_cell_length_c       24.901
_cell_angle_alpha    90
_cell_angle_beta     90
_cell_angle_gamma    90

_symmetry_space_group_name_H-M    "P 1"
_symmetry_int_tables_number       1

loop_
  _symmetry_equiv_pos_as_xyz
  'x, y, z'

loop_
  _atom_site_label
  _atom_site_occupancy
  _atom_site_fract_x
  _atom_site_fract_y
  _atom_site_fract_z
  _atom_site_thermal_displace_type
  _atom_site_B_iso_or_equiv
  _atom_site_type_symbol
  C1       1.0000 0.61730  0.49700  0.01150  Biso   1.000  C
  C2       1.0000 0.49850  0.85450  0.95950  Biso   1.000  C
  H1       1.0000 0.48500  0.82620  0.99080  Biso   1.000  H
  H2       1.0000 0.44900  0.85080  0.93460  Biso   1.000  H
  C3       1.0000 0.63820  0.21670  0.54800  Biso   1.000  C
  C4       1.0000 0.50370  0.15890  0.59070  Biso   1.000  C
  H3       1.0000 0.48010  0.15050  0.55670  Biso   1.000  H
  C5       1.0000 0.34830  0.21160  0.17240  Biso   1.000  C
  H4       1.0000 0.29150  0.22870  0.17910  Biso   1.000  H
  C6       1.0000 0.02670  0.87790  0.83980  Biso   1.000  C
  H5       1.0000 0.96650  0.88760  0.83570  Biso   1.000  H
  C7       1.0000 0.14090  0.80390  0.87030  Biso   1.000  C
  H6       1.0000 0.15970  0.76360  0.88800  Biso   1.000  H
  C8       1.0000 0.54710  0.14430  0.02640  Biso   1.000  C
  H7       1.0000 0.60010  0.14790  0.04850  Biso   1.000  H
  H8       1.0000 0.55590  0.17350  0.99500  Biso   1.000  H
  C9       1.0000 0.59780  0.82570  0.87980  Biso   1.000  C
  C10      1.0000 0.53540  0.06870  0.00870  Biso   1.000  C
  C11      1.0000 0.51030  0.92980  0.97600  Biso   1.000  C
  C12      1.0000 0.23010  0.40170  0.10100  Biso   1.000  C
  C13      1.0000 0.68370  0.79880  0.87510  Biso   1.000  C
  C14      1.0000 0.78290  0.52980  0.92790  Biso   1.000  C
  C15      1.0000 0.45710  0.13970  0.63540  Biso   1.000  C
  H9       1.0000 0.40190  0.11820  0.63160  Biso   1.000  H
  C16      1.0000 0.33280  0.50760  0.99680  Biso   1.000  C
  H10      1.0000 0.31250  0.55430  0.00600  Biso   1.000  H
  H11      1.0000 0.31630  0.49850  0.95980  Biso   1.000  H
  C17      1.0000 0.58610  0.19090  0.59570  Biso   1.000  C
  C18      1.0000 0.65220  0.80430  0.95950  Biso   1.000  C
  H12      1.0000 0.65690  0.80110  0.99670  Biso   1.000  H
  C19      1.0000 0.27050  0.38810  0.01900  Biso   1.000  C
  H13      1.0000 0.28100  0.36860  0.98540  Biso   1.000  H
  C20      1.0000 0.39460  0.19260  0.03520  Biso   1.000  C
  H14      1.0000 0.38420  0.19510  0.99850  Biso   1.000  H
  C21      1.0000 0.72000  0.78830  0.82540  Biso   1.000  C
  H15      1.0000 0.77700  0.76980  0.82240  Biso   1.000  H
  C22      1.0000 0.26360  0.46560  0.08380  Biso   1.000  C
  C23      1.0000 0.58690  0.83240  0.78590  Biso   1.000  C
  H16      1.0000 0.55550  0.84390  0.75490  Biso   1.000  H
  C24      1.0000 0.46270  0.17390  0.11150  Biso   1.000  C
  C25      1.0000 0.67320  0.80490  0.78060  Biso   1.000  C
  H17      1.0000 0.69790  0.79810  0.74680  Biso   1.000  H
  C26      1.0000 0.19920  0.39330  0.15220  Biso   1.000  C
  H18      1.0000 0.17790  0.35030  0.16420  Biso   1.000  H
  C27      1.0000 0.98610  0.76820  0.89020  Biso   1.000  C
  C28      1.0000 0.57260  0.18290  0.69240  Biso   1.000  C
  H19      1.0000 0.59580  0.19110  0.72640  Biso   1.000  H
  C29      1.0000 0.43160  0.50440  0.00200  Biso   1.000  C
  C30      1.0000 0.47690  0.55160  0.03260  Biso   1.000  C
  H20      1.0000 0.44640  0.58720  0.05030  Biso   1.000  H
  C31      1.0000 0.47930  0.45370  0.97650  Biso   1.000  C
  H21      1.0000 0.44970  0.42050  0.95580  Biso   1.000  H
  C32      1.0000 0.05230  0.81660  0.86500  Biso   1.000  C
  C33      1.0000 0.56690  0.54660  0.03730  Biso   1.000  C
  H22      1.0000 0.59600  0.57860  0.05930  Biso   1.000  H
  C34      1.0000 0.40070  0.11360  0.81640  Biso   1.000  C
  H23      1.0000 0.40960  0.13410  0.85160  Biso   1.000  H
  H24      1.0000 0.34300  0.12910  0.80380  Biso   1.000  H
  C35      1.0000 0.77840  0.60970  0.99140  Biso   1.000  C
  H25      1.0000 0.76750  0.63070  0.02450  Biso   1.000  H
  C36      1.0000 0.80490  0.47960  0.84420  Biso   1.000  C
  H26      1.0000 0.80080  0.44170  0.82090  Biso   1.000  H
  C37      1.0000 0.83980  0.54200  0.82530  Biso   1.000  C
  H27      1.0000 0.86080  0.54410  0.79020  Biso   1.000  H
  C38      1.0000 0.53630  0.01490  0.04570  Biso   1.000  C
  H28      1.0000 0.54570  0.02450  0.08190  Biso   1.000  H
  C39      1.0000 0.71650  0.49240  0.01730  Biso   1.000  C
  H29      1.0000 0.73310  0.50310  0.05410  Biso   1.000  H
  H30      1.0000 0.73610  0.44510  0.00930  Biso   1.000  H
  C40      1.0000 0.51080  0.98490  0.94020  Biso   1.000  C
  H31      1.0000 0.50280  0.97570  0.90390  Biso   1.000  H
  C41      1.0000 0.49040  0.15140  0.68610  Biso   1.000  C
  C42      1.0000 0.54720  0.84280  0.83470  Biso   1.000  C
  H32      1.0000 0.48970  0.86040  0.83770  Biso   1.000  H
  C43      1.0000 0.84450  0.60120  0.85690  Biso   1.000  C
  H33      1.0000 0.86620  0.64360  0.84390  Biso   1.000  H
  C44      1.0000 0.37670  0.19890  0.12070  Biso   1.000  C
  C45      1.0000 0.52290  0.05350  0.95680  Biso   1.000  C
  H34      1.0000 0.52230  0.08940  0.93160  Biso   1.000  H
  C46      1.0000 0.81530  0.59370  0.90870  Biso   1.000  C
  C47      1.0000 0.20400  0.84990  0.84980  Biso   1.000  C
  H35      1.0000 0.26430  0.83970  0.85280  Biso   1.000  H
  C48      1.0000 0.49260  0.17300  0.20310  Biso   1.000  C
  H36      1.0000 0.53050  0.16460  0.23180  Biso   1.000  H
  C49      1.0000 0.61980  0.20220  0.64630  Biso   1.000  C
  H37      1.0000 0.67540  0.22310  0.65000  Biso   1.000  H
  C50      1.0000 0.77650  0.47200  0.89540  Biso   1.000  C
  H38      1.0000 0.75380  0.42970  0.90790  Biso   1.000  H
  C51      1.0000 0.17710  0.91000  0.82540  Biso   1.000  C
  C52      1.0000 0.32320  0.94100  0.79950  Biso   1.000  C
  H39      1.0000 0.32910  0.90290  0.77400  Biso   1.000  H
  H40      1.0000 0.34750  0.92610  0.83370  Biso   1.000  H
  C53      1.0000 0.08930  0.92580  0.82020  Biso   1.000  C
  H41      1.0000 0.07130  0.96740  0.80400  Biso   1.000  H
  C54      1.0000 0.40550  0.19840  0.21280  Biso   1.000  C
  H42      1.0000 0.38730  0.20620  0.24800  Biso   1.000  H
  C55      1.0000 0.52120  0.16070  0.15210  Biso   1.000  C
  H43      1.0000 0.57820  0.14400  0.14520  Biso   1.000  H
  C56      1.0000 0.56880  0.45070  0.98070  Biso   1.000  C
  H44      1.0000 0.59900  0.41590  0.96190  Biso   1.000  H
  C57      1.0000 0.37110  0.00550  0.77940  Biso   1.000  C
  H45      1.0000 0.42270  0.99200  0.75850  Biso   1.000  H
  H46      1.0000 0.33190  0.03290  0.75660  Biso   1.000  H
  C58      1.0000 0.46670  0.14290  0.78100  Biso   1.000  C
  H47      1.0000 0.47200  0.19300  0.78690  Biso   1.000  H
  H48      1.0000 0.52420  0.12140  0.78760  Biso   1.000  H
  C59      1.0000 0.20080  0.45110  0.18530  Biso   1.000  C
  H49      1.0000 0.17830  0.44810  0.22000  Biso   1.000  H
  C60      1.0000 0.52290  0.94650  0.02880  Biso   1.000  C
  H50      1.0000 0.52260  0.91080  0.05420  Biso   1.000  H
  C61      1.0000 0.26830  0.52430  0.11510  Biso   1.000  C
  H51      1.0000 0.29090  0.56670  0.10270  Biso   1.000  H
  C62      1.0000 0.23700  0.51520  0.16630  Biso   1.000  C
  H52      1.0000 0.23950  0.55310  0.18990  Biso   1.000  H
  Co1      1.0000 0.21230  0.24935  0.06002  Biso   1.000  Co
  Co2      1.0000 0.83644  0.74719  0.94496  Biso   1.000  Co
  N1       1.0000 0.23660  0.35320  0.05870  Biso   1.000  N
  N2       1.0000 0.28920  0.45690  0.03140  Biso   1.000  N
  N3       1.0000 0.76020  0.54200  0.98060  Biso   1.000  N
  N4       1.0000 0.81310  0.64290  0.95040  Biso   1.000  N
  N5       1.0000 0.47090  0.17060  0.05680  Biso   1.000  N
  N6       1.0000 0.33580  0.21040  0.07160  Biso   1.000  N
  N7       1.0000 0.71580  0.78610  0.92610  Biso   1.000  N
  N8       1.0000 0.57940  0.82830  0.93380  Biso   1.000  N
  O1       1.0000 0.70840  0.24800  0.55320  Biso   1.000  O
  O2       1.0000 0.60240  0.20490  0.50320  Biso   1.000  O
  O3       1.0000 0.01180  0.71710  0.91580  Biso   1.000  O
  O4       1.0000 0.90490  0.78500  0.88541  Biso   1.000  O
  O5       1.0000 0.43840  0.12910  0.72710  Biso   1.000  O
  O6       1.0000 0.39670  0.04430  0.82270  Biso   1.000  O
  O7       1.0000 0.23450  0.96040  0.80500  Biso   1.000  O
  C63      1.0000 0.88270  0.50300  0.51150  Biso   1.000  C
  C64      1.0000 0.00150  0.14550  0.45950  Biso   1.000  C
  H53      1.0000 0.01500  0.17380  0.49080  Biso   1.000  H
  H54      1.0000 0.05100  0.14920  0.43460  Biso   1.000  H
  C65      1.0000 0.86180  0.78330  0.04800  Biso   1.000  C
  C66      1.0000 0.99630  0.84110  0.09070  Biso   1.000  C
  H55      1.0000 0.01990  0.84950  0.05670  Biso   1.000  H
  C67      1.0000 0.15170  0.78840  0.67240  Biso   1.000  C
  H56      1.0000 0.20850  0.77130  0.67910  Biso   1.000  H
  C68      1.0000 0.47330  0.12210  0.33980  Biso   1.000  C
  H57      1.0000 0.53350  0.11240  0.33570  Biso   1.000  H
  C69      1.0000 0.35910  0.19610  0.37030  Biso   1.000  C
  H58      1.0000 0.34030  0.23640  0.38800  Biso   1.000  H
  C70      1.0000 0.95290  0.85570  0.52640  Biso   1.000  C
  H59      1.0000 0.89990  0.85210  0.54850  Biso   1.000  H
  H60      1.0000 0.94410  0.82650  0.49500  Biso   1.000  H
  C71      1.0000 0.90220  0.17430  0.37980  Biso   1.000  C
  C72      1.0000 0.96460  0.93130  0.50870  Biso   1.000  C
  C73      1.0000 0.98970  0.07020  0.47600  Biso   1.000  C
  C74      1.0000 0.26990  0.59830  0.60100  Biso   1.000  C
  C75      1.0000 0.81630  0.20120  0.37510  Biso   1.000  C
  C76      1.0000 0.71710  0.47020  0.42790  Biso   1.000  C
  C77      1.0000 0.04290  0.86030  0.13540  Biso   1.000  C
  H61      1.0000 0.09810  0.88180  0.13160  Biso   1.000  H
  C78      1.0000 0.16720  0.49240  0.49680  Biso   1.000  C
  H62      1.0000 0.18750  0.44570  0.50600  Biso   1.000  H
  H63      1.0000 0.18370  0.50150  0.45980  Biso   1.000  H
  C79      1.0000 0.91390  0.80910  0.09570  Biso   1.000  C
  C80      1.0000 0.84780  0.19570  0.45950  Biso   1.000  C
  H64      1.0000 0.84310  0.19890  0.49670  Biso   1.000  H
  C81      1.0000 0.22950  0.61190  0.51900  Biso   1.000  C
  H65      1.0000 0.21900  0.63140  0.48540  Biso   1.000  H
  C82      1.0000 0.10540  0.80740  0.53520  Biso   1.000  C
  H66      1.0000 0.11580  0.80490  0.49850  Biso   1.000  H
  C83      1.0000 0.78000  0.21170  0.32540  Biso   1.000  C
  H67      1.0000 0.72300  0.23020  0.32240  Biso   1.000  H
  C84      1.0000 0.23640  0.53440  0.58380  Biso   1.000  C
  C85      1.0000 0.91310  0.16760  0.28590  Biso   1.000  C
  H68      1.0000 0.94450  0.15610  0.25490  Biso   1.000  H
  C86      1.0000 0.03730  0.82610  0.61150  Biso   1.000  C
  C87      1.0000 0.82680  0.19510  0.28060  Biso   1.000  C
  H69      1.0000 0.80210  0.20190  0.24680  Biso   1.000  H
  C88      1.0000 0.30080  0.60670  0.65220  Biso   1.000  C
  H70      1.0000 0.32210  0.64970  0.66420  Biso   1.000  H
  C89      1.0000 0.51390  0.23180  0.39020  Biso   1.000  C
  C90      1.0000 0.92740  0.81710  0.19240  Biso   1.000  C
  H71      1.0000 0.90420  0.80890  0.22640  Biso   1.000  H
  C91      1.0000 0.06840  0.49560  0.50200  Biso   1.000  C
  C92      1.0000 0.02310  0.44840  0.53260  Biso   1.000  C
  H72      1.0000 0.05360  0.41280  0.55030  Biso   1.000  H
  C93      1.0000 0.02070  0.54630  0.47650  Biso   1.000  C
  H73      1.0000 0.05030  0.57950  0.45580  Biso   1.000  H
  C94      1.0000 0.44770  0.18340  0.36500  Biso   1.000  C
  C95      1.0000 0.93310  0.45340  0.53730  Biso   1.000  C
  H74      1.0000 0.90400  0.42140  0.55930  Biso   1.000  H
  C96      1.0000 0.09930  0.88640  0.31640  Biso   1.000  C
  H75      1.0000 0.09040  0.86590  0.35160  Biso   1.000  H
  H76      1.0000 0.15700  0.87090  0.30380  Biso   1.000  H
  C97      1.0000 0.72160  0.39030  0.49140  Biso   1.000  C
  H77      1.0000 0.73250  0.36930  0.52450  Biso   1.000  H
  C98      1.0000 0.69510  0.52040  0.34420  Biso   1.000  C
  H78      1.0000 0.69920  0.55830  0.32090  Biso   1.000  H
  C99      1.0000 0.66020  0.45800  0.32530  Biso   1.000  C
  H79      1.0000 0.63920  0.45590  0.29020  Biso   1.000  H
  C100     1.0000 0.96370  0.98510  0.54570  Biso   1.000  C
  H80      1.0000 0.95430  0.97550  0.58190  Biso   1.000  H
  C101     1.0000 0.78350  0.50760  0.51730  Biso   1.000  C
  H81      1.0000 0.76690  0.49690  0.55410  Biso   1.000  H
  H82      1.0000 0.76390  0.55490  0.50930  Biso   1.000  H
  C102     1.0000 0.98920  0.01510  0.44020  Biso   1.000  C
  H83      1.0000 0.99720  0.02430  0.40390  Biso   1.000  H
  C103     1.0000 0.00960  0.84860  0.18610  Biso   1.000  C
  C104     1.0000 0.95280  0.15720  0.33470  Biso   1.000  C
  H84      1.0000 0.01030  0.13960  0.33770  Biso   1.000  H
  C105     1.0000 0.65550  0.39880  0.35690  Biso   1.000  C
  H85      1.0000 0.63380  0.35640  0.34390  Biso   1.000  H
  C106     1.0000 0.12330  0.80110  0.62070  Biso   1.000  C
  C107     1.0000 0.97710  0.94650  0.45680  Biso   1.000  C
  H86      1.0000 0.97770  0.91060  0.43160  Biso   1.000  H
  C108     1.0000 0.68470  0.40630  0.40870  Biso   1.000  C
  C109     1.0000 0.29600  0.15010  0.34980  Biso   1.000  C
  H87      1.0000 0.23570  0.16030  0.35280  Biso   1.000  H
  C110     1.0000 0.00740  0.82700  0.70310  Biso   1.000  C
  H88      1.0000 0.96950  0.83540  0.73180  Biso   1.000  H
  C111     1.0000 0.88020  0.79780  0.14630  Biso   1.000  C
  H89      1.0000 0.82460  0.77690  0.15000  Biso   1.000  H
  C112     1.0000 0.72350  0.52800  0.39540  Biso   1.000  C
  H90      1.0000 0.74620  0.57030  0.40790  Biso   1.000  H
  C113     1.0000 0.32290  0.09000  0.32540  Biso   1.000  C
  C114     1.0000 0.17680  0.05900  0.29950  Biso   1.000  C
  H91      1.0000 0.17090  0.09710  0.27400  Biso   1.000  H
  H92      1.0000 0.15250  0.07390  0.33370  Biso   1.000  H
  C115     1.0000 0.41070  0.07420  0.32020  Biso   1.000  C
  H93      1.0000 0.42870  0.03260  0.30400  Biso   1.000  H
  C116     1.0000 0.09450  0.80160  0.71280  Biso   1.000  C
  H94      1.0000 0.11270  0.79380  0.74800  Biso   1.000  H
  C117     1.0000 0.97880  0.83930  0.65210  Biso   1.000  C
  H95      1.0000 0.92180  0.85600  0.64520  Biso   1.000  H
  C118     1.0000 0.93120  0.54930  0.48070  Biso   1.000  C
  H96      1.0000 0.90100  0.58410  0.46190  Biso   1.000  H
  C119     1.0000 0.12890  0.99450  0.27940  Biso   1.000  C
  H97      1.0000 0.07730  0.00800  0.25850  Biso   1.000  H
  H98      1.0000 0.16810  0.96710  0.25660  Biso   1.000  H
  C120     1.0000 0.03330  0.85710  0.28100  Biso   1.000  C
  H99      1.0000 0.02800  0.80700  0.28690  Biso   1.000  H
  H100     1.0000 0.97580  0.87860  0.28760  Biso   1.000  H
  C121     1.0000 0.29920  0.54890  0.68530  Biso   1.000  C
  H101     1.0000 0.32170  0.55190  0.72000  Biso   1.000  H
  C122     1.0000 0.97710  0.05350  0.52880  Biso   1.000  C
  H102     1.0000 0.97740  0.08920  0.55420  Biso   1.000  H
  C123     1.0000 0.23170  0.47570  0.61510  Biso   1.000  C
  H103     1.0000 0.20910  0.43330  0.60270  Biso   1.000  H
  C124     1.0000 0.26300  0.48480  0.66630  Biso   1.000  C
  H104     1.0000 0.26050  0.44690  0.68990  Biso   1.000  H
  Co3      1.0000 0.28770  0.75065  0.56002  Biso   1.000  Co
  Co4      1.0000 0.66356  0.25281  0.44496  Biso   1.000  Co
  N9       1.0000 0.26340  0.64680  0.55870  Biso   1.000  N
  N10      1.0000 0.21080  0.54310  0.53140  Biso   1.000  N
  N11      1.0000 0.73980  0.45800  0.48060  Biso   1.000  N
  N12      1.0000 0.68690  0.35710  0.45040  Biso   1.000  N
  N13      1.0000 0.02910  0.82940  0.55680  Biso   1.000  N
  N14      1.0000 0.16420  0.78960  0.57160  Biso   1.000  N
  N15      1.0000 0.78420  0.21390  0.42610  Biso   1.000  N
  N16      1.0000 0.92060  0.17170  0.43380  Biso   1.000  N
  O8       1.0000 0.79160  0.75200  0.05320  Biso   1.000  O
  O9       1.0000 0.89760  0.79510  0.00320  Biso   1.000  O
  O10      1.0000 0.48820  0.28290  0.41580  Biso   1.000  O
  O11      1.0000 0.59510  0.21500  0.38541  Biso   1.000  O
  O12      1.0000 0.06160  0.87090  0.22710  Biso   1.000  O
  O13      1.0000 0.10330  0.95570  0.32270  Biso   1.000  O
  O14      1.0000 0.26550  0.03960  0.30500  Biso   1.000  O
  C125     1.0000 0.38270  0.99700  0.48850  Biso   1.000  C
  C126     1.0000 0.50150  0.35450  0.54050  Biso   1.000  C
  H105     1.0000 0.51500  0.32620  0.50920  Biso   1.000  H
  H106     1.0000 0.55100  0.35080  0.56540  Biso   1.000  H
  C127     1.0000 0.36180  0.71670  0.95200  Biso   1.000  C
  C128     1.0000 0.49630  0.65890  0.90930  Biso   1.000  C
  H107     1.0000 0.51990  0.65050  0.94330  Biso   1.000  H
  C129     1.0000 0.65170  0.71160  0.32760  Biso   1.000  C
  H108     1.0000 0.70850  0.72870  0.32090  Biso   1.000  H
  C130     1.0000 0.97330  0.37790  0.66020  Biso   1.000  C
  H109     1.0000 0.03350  0.38760  0.66430  Biso   1.000  H
  C131     1.0000 0.85910  0.30390  0.62970  Biso   1.000  C
  H110     1.0000 0.84030  0.26360  0.61200  Biso   1.000  H
  C132     1.0000 0.45290  0.64430  0.47360  Biso   1.000  C
  H111     1.0000 0.39990  0.64790  0.45150  Biso   1.000  H
  H112     1.0000 0.44410  0.67350  0.50500  Biso   1.000  H
  C133     1.0000 0.40220  0.32570  0.62020  Biso   1.000  C
  C134     1.0000 0.46460  0.56870  0.49130  Biso   1.000  C
  C135     1.0000 0.48970  0.42980  0.52400  Biso   1.000  C
  C136     1.0000 0.76990  0.90170  0.39900  Biso   1.000  C
  C137     1.0000 0.31630  0.29880  0.62490  Biso   1.000  C
  C138     1.0000 0.21710  0.02980  0.57210  Biso   1.000  C
  C139     1.0000 0.54290  0.63970  0.86460  Biso   1.000  C
  H113     1.0000 0.59810  0.61820  0.86840  Biso   1.000  H
  C140     1.0000 0.66720  0.00760  0.50320  Biso   1.000  C
  H114     1.0000 0.68750  0.05430  0.49400  Biso   1.000  H
  H115     1.0000 0.68370  0.99850  0.54020  Biso   1.000  H
  C141     1.0000 0.41390  0.69090  0.90430  Biso   1.000  C
  C142     1.0000 0.34780  0.30430  0.54050  Biso   1.000  C
  H116     1.0000 0.34310  0.30110  0.50330  Biso   1.000  H
  C143     1.0000 0.72950  0.88810  0.48100  Biso   1.000  C
  H117     1.0000 0.71900  0.86860  0.51460  Biso   1.000  H
  C144     1.0000 0.60540  0.69260  0.46480  Biso   1.000  C
  H118     1.0000 0.61580  0.69510  0.50150  Biso   1.000  H
  C145     1.0000 0.28000  0.28830  0.67460  Biso   1.000  C
  H119     1.0000 0.22300  0.26980  0.67760  Biso   1.000  H
  C146     1.0000 0.73640  0.96560  0.41620  Biso   1.000  C
  C147     1.0000 0.41310  0.33240  0.71410  Biso   1.000  C
  H120     1.0000 0.44450  0.34390  0.74510  Biso   1.000  H
  C148     1.0000 0.53730  0.67390  0.38850  Biso   1.000  C
  C149     1.0000 0.32680  0.30490  0.71940  Biso   1.000  C
  H121     1.0000 0.30210  0.29810  0.75320  Biso   1.000  H
  C150     1.0000 0.80080  0.89330  0.34780  Biso   1.000  C
  H122     1.0000 0.82210  0.85030  0.33580  Biso   1.000  H
  C151     1.0000 0.01390  0.26820  0.60980  Biso   1.000  C
  C152     1.0000 0.42740  0.68290  0.80760  Biso   1.000  C
  H123     1.0000 0.40420  0.69110  0.77360  Biso   1.000  H
  C153     1.0000 0.56840  0.00440  0.49800  Biso   1.000  C
  C154     1.0000 0.52310  0.05160  0.46740  Biso   1.000  C
  H124     1.0000 0.55360  0.08720  0.44970  Biso   1.000  H
  C155     1.0000 0.52070  0.95370  0.52350  Biso   1.000  C
  H125     1.0000 0.55030  0.92050  0.54420  Biso   1.000  H
  C156     1.0000 0.94770  0.31660  0.63500  Biso   1.000  C
  C157     1.0000 0.43310  0.04660  0.46270  Biso   1.000  C
  H126     1.0000 0.40400  0.07860  0.44070  Biso   1.000  H
  C158     1.0000 0.59930  0.61360  0.68360  Biso   1.000  C
  H127     1.0000 0.59040  0.63410  0.64840  Biso   1.000  H
  H128     1.0000 0.65700  0.62910  0.69620  Biso   1.000  H
  C159     1.0000 0.22160  0.10970  0.50860  Biso   1.000  C
  H129     1.0000 0.23250  0.13070  0.47550  Biso   1.000  H
  C160     1.0000 0.19510  0.97960  0.65580  Biso   1.000  C
  H130     1.0000 0.19920  0.94170  0.67910  Biso   1.000  H
  C161     1.0000 0.16020  0.04200  0.67470  Biso   1.000  C
  H131     1.0000 0.13920  0.04410  0.70980  Biso   1.000  H
  C162     1.0000 0.46370  0.51490  0.45430  Biso   1.000  C
  H132     1.0000 0.45430  0.52450  0.41810  Biso   1.000  H
  C163     1.0000 0.28350  0.99240  0.48270  Biso   1.000  C
  H133     1.0000 0.26690  0.00310  0.44590  Biso   1.000  H
  H134     1.0000 0.26390  0.94510  0.49070  Biso   1.000  H
  C164     1.0000 0.48920  0.48490  0.55980  Biso   1.000  C
  H135     1.0000 0.49720  0.47570  0.59610  Biso   1.000  H
  C165     1.0000 0.50960  0.65140  0.81390  Biso   1.000  C
  C166     1.0000 0.45280  0.34280  0.66530  Biso   1.000  C
  H136     1.0000 0.51030  0.36040  0.66230  Biso   1.000  H
  C167     1.0000 0.15550  0.10120  0.64310  Biso   1.000  C
  H137     1.0000 0.13380  0.14360  0.65610  Biso   1.000  H
  C168     1.0000 0.62330  0.69890  0.37930  Biso   1.000  C
  C169     1.0000 0.47710  0.55350  0.54320  Biso   1.000  C
  H138     1.0000 0.47770  0.58940  0.56840  Biso   1.000  H
  C170     1.0000 0.18470  0.09370  0.59130  Biso   1.000  C
  C171     1.0000 0.79600  0.34990  0.65020  Biso   1.000  C
  H139     1.0000 0.73570  0.33970  0.64720  Biso   1.000  H
  C172     1.0000 0.50740  0.67300  0.29690  Biso   1.000  C
  H140     1.0000 0.46950  0.66460  0.26820  Biso   1.000  H
  C173     1.0000 0.38020  0.70220  0.85370  Biso   1.000  C
  H141     1.0000 0.32460  0.72310  0.85000  Biso   1.000  H
  C174     1.0000 0.22350  0.97200  0.60460  Biso   1.000  C
  H142     1.0000 0.24620  0.92970  0.59210  Biso   1.000  H
  C175     1.0000 0.82290  0.41000  0.67460  Biso   1.000  C
  C176     1.0000 0.67680  0.44100  0.70050  Biso   1.000  C
  H143     1.0000 0.67090  0.40290  0.72600  Biso   1.000  H
  H144     1.0000 0.65250  0.42610  0.66630  Biso   1.000  H
  C177     1.0000 0.91070  0.42580  0.67980  Biso   1.000  C
  H145     1.0000 0.92870  0.46740  0.69600  Biso   1.000  H
  C178     1.0000 0.59450  0.69840  0.28720  Biso   1.000  C
  H146     1.0000 0.61270  0.70620  0.25200  Biso   1.000  H
  C179     1.0000 0.47880  0.66070  0.34790  Biso   1.000  C
  H147     1.0000 0.42180  0.64400  0.35480  Biso   1.000  H
  C180     1.0000 0.43120  0.95070  0.51930  Biso   1.000  C
  H148     1.0000 0.40100  0.91590  0.53810  Biso   1.000  H
  C181     1.0000 0.62890  0.50550  0.72060  Biso   1.000  C
  H149     1.0000 0.57730  0.49200  0.74150  Biso   1.000  H
  H150     1.0000 0.66810  0.53290  0.74340  Biso   1.000  H
  C182     1.0000 0.53330  0.64290  0.71900  Biso   1.000  C
  H151     1.0000 0.52800  0.69300  0.71310  Biso   1.000  H
  H152     1.0000 0.47580  0.62140  0.71240  Biso   1.000  H
  C183     1.0000 0.79920  0.95110  0.31470  Biso   1.000  C
  H153     1.0000 0.82170  0.94810  0.28000  Biso   1.000  H
  C184     1.0000 0.47710  0.44650  0.47120  Biso   1.000  C
  H154     1.0000 0.47740  0.41080  0.44580  Biso   1.000  H
  C185     1.0000 0.73170  0.02430  0.38490  Biso   1.000  C
  H155     1.0000 0.70910  0.06670  0.39730  Biso   1.000  H
  C186     1.0000 0.76300  0.01520  0.33370  Biso   1.000  C
  H156     1.0000 0.76050  0.05310  0.31010  Biso   1.000  H
  Co5      1.0000 0.78770  0.74935  0.43998  Biso   1.000  Co
  Co6      1.0000 0.16356  0.24719  0.55504  Biso   1.000  Co
  N17      1.0000 0.76340  0.85320  0.44130  Biso   1.000  N
  N18      1.0000 0.71080  0.95690  0.46860  Biso   1.000  N
  N19      1.0000 0.23980  0.04200  0.51940  Biso   1.000  N
  N20      1.0000 0.18690  0.14290  0.54960  Biso   1.000  N
  N21      1.0000 0.52910  0.67060  0.44320  Biso   1.000  N
  N22      1.0000 0.66420  0.71040  0.42840  Biso   1.000  N
  N23      1.0000 0.28420  0.28610  0.57390  Biso   1.000  N
  N24      1.0000 0.42060  0.32830  0.56620  Biso   1.000  N
  O15      1.0000 0.29160  0.74800  0.94680  Biso   1.000  O
  O16      1.0000 0.39760  0.70490  0.99680  Biso   1.000  O
  O17      1.0000 0.98820  0.21710  0.58420  Biso   1.000  O
  O18      1.0000 0.09510  0.28500  0.61459  Biso   1.000  O
  O19      1.0000 0.56160  0.62910  0.77290  Biso   1.000  O
  O20      1.0000 0.60330  0.54430  0.67730  Biso   1.000  O
  O21      1.0000 0.76550  0.46040  0.69500  Biso   1.000  O
  C187     1.0000 0.11730  0.00300  0.98850  Biso   1.000  C
  C188     1.0000 0.99850  0.64550  0.04050  Biso   1.000  C
  H157     1.0000 0.98500  0.67380  0.00920  Biso   1.000  H
  H158     1.0000 0.94900  0.64920  0.06540  Biso   1.000  H
  C189     1.0000 0.13820  0.28330  0.45200  Biso   1.000  C
  C190     1.0000 0.00370  0.34110  0.40930  Biso   1.000  C
  H159     1.0000 0.98010  0.34950  0.44330  Biso   1.000  H
  C191     1.0000 0.84830  0.28840  0.82760  Biso   1.000  C
  H160     1.0000 0.79150  0.27130  0.82090  Biso   1.000  H
  C192     1.0000 0.52670  0.62210  0.16020  Biso   1.000  C
  H161     1.0000 0.46650  0.61240  0.16430  Biso   1.000  H
  C193     1.0000 0.64090  0.69610  0.12970  Biso   1.000  C
  H162     1.0000 0.65970  0.73640  0.11200  Biso   1.000  H
  C194     1.0000 0.04710  0.35570  0.97360  Biso   1.000  C
  H163     1.0000 0.10010  0.35210  0.95150  Biso   1.000  H
  H164     1.0000 0.05590  0.32650  0.00500  Biso   1.000  H
  C195     1.0000 0.09780  0.67430  0.12020  Biso   1.000  C
  C196     1.0000 0.03540  0.43130  0.99130  Biso   1.000  C
  C197     1.0000 0.01030  0.57020  0.02400  Biso   1.000  C
  C198     1.0000 0.73010  0.09830  0.89900  Biso   1.000  C
  C199     1.0000 0.18370  0.70120  0.12490  Biso   1.000  C
  C200     1.0000 0.28290  0.97020  0.07210  Biso   1.000  C
  C201     1.0000 0.95710  0.36030  0.36460  Biso   1.000  C
  H165     1.0000 0.90190  0.38180  0.36840  Biso   1.000  H
  C202     1.0000 0.83280  0.99240  0.00320  Biso   1.000  C
  H166     1.0000 0.81250  0.94570  0.99400  Biso   1.000  H
  H167     1.0000 0.81630  0.00150  0.04020  Biso   1.000  H
  C203     1.0000 0.08610  0.30910  0.40430  Biso   1.000  C
  C204     1.0000 0.15220  0.69570  0.04050  Biso   1.000  C
  H168     1.0000 0.15690  0.69890  0.00330  Biso   1.000  H
  C205     1.0000 0.77050  0.11190  0.98100  Biso   1.000  C
  H169     1.0000 0.78100  0.13140  0.01460  Biso   1.000  H
  C206     1.0000 0.89460  0.30740  0.96480  Biso   1.000  C
  H170     1.0000 0.88420  0.30490  0.00150  Biso   1.000  H
  C207     1.0000 0.22000  0.71170  0.17460  Biso   1.000  C
  H171     1.0000 0.27700  0.73020  0.17760  Biso   1.000  H
  C208     1.0000 0.76360  0.03440  0.91620  Biso   1.000  C
  C209     1.0000 0.08690  0.66760  0.21410  Biso   1.000  C
  H172     1.0000 0.05550  0.65610  0.24510  Biso   1.000  H
  C210     1.0000 0.96270  0.32610  0.88850  Biso   1.000  C
  C211     1.0000 0.17320  0.69510  0.21940  Biso   1.000  C
  H173     1.0000 0.19790  0.70190  0.25320  Biso   1.000  H
  C212     1.0000 0.69920  0.10670  0.84780  Biso   1.000  C
  H174     1.0000 0.67790  0.14970  0.83580  Biso   1.000  H
  C213     1.0000 0.48610  0.73180  0.10980  Biso   1.000  C
  C214     1.0000 0.07260  0.31710  0.30760  Biso   1.000  C
  H175     1.0000 0.09580  0.30890  0.27360  Biso   1.000  H
  C215     1.0000 0.93160  0.99560  0.99800  Biso   1.000  C
  C216     1.0000 0.97690  0.94840  0.96740  Biso   1.000  C
  H176     1.0000 0.94640  0.91280  0.94970  Biso   1.000  H
  C217     1.0000 0.97930  0.04630  0.02350  Biso   1.000  C
  H177     1.0000 0.94970  0.07950  0.04420  Biso   1.000  H
  C218     1.0000 0.55230  0.68340  0.13500  Biso   1.000  C
  C219     1.0000 0.06690  0.95340  0.96270  Biso   1.000  C
  H178     1.0000 0.09600  0.92140  0.94070  Biso   1.000  H
  C220     1.0000 0.90070  0.38640  0.18360  Biso   1.000  C
  H179     1.0000 0.90960  0.36590  0.14840  Biso   1.000  H
  H180     1.0000 0.84300  0.37090  0.19620  Biso   1.000  H
  C221     1.0000 0.27840  0.89030  0.00860  Biso   1.000  C
  H181     1.0000 0.26750  0.86930  0.97550  Biso   1.000  H
  C222     1.0000 0.30490  0.02040  0.15580  Biso   1.000  C
  H182     1.0000 0.30080  0.05830  0.17910  Biso   1.000  H
  C223     1.0000 0.33980  0.95800  0.17470  Biso   1.000  C
  H183     1.0000 0.36080  0.95590  0.20980  Biso   1.000  H
  C224     1.0000 0.03630  0.48510  0.95430  Biso   1.000  C
  H184     1.0000 0.04570  0.47550  0.91810  Biso   1.000  H
  C225     1.0000 0.21650  0.00760  0.98270  Biso   1.000  C
  H185     1.0000 0.23310  0.99690  0.94590  Biso   1.000  H
  H186     1.0000 0.23610  0.05490  0.99070  Biso   1.000  H
  C226     1.0000 0.01080  0.51510  0.05980  Biso   1.000  C
  H187     1.0000 0.00280  0.52430  0.09610  Biso   1.000  H
  C227     1.0000 0.99040  0.34860  0.31390  Biso   1.000  C
  C228     1.0000 0.04720  0.65720  0.16530  Biso   1.000  C
  H188     1.0000 0.98970  0.63960  0.16230  Biso   1.000  H
  C229     1.0000 0.34450  0.89880  0.14310  Biso   1.000  C
  H189     1.0000 0.36620  0.85640  0.15610  Biso   1.000  H
  C230     1.0000 0.87670  0.30110  0.87930  Biso   1.000  C
  C231     1.0000 0.02290  0.44650  0.04320  Biso   1.000  C
  H190     1.0000 0.02230  0.41060  0.06840  Biso   1.000  H
  C232     1.0000 0.31530  0.90630  0.09130  Biso   1.000  C
  C233     1.0000 0.70400  0.65010  0.15020  Biso   1.000  C
  H191     1.0000 0.76430  0.66030  0.14720  Biso   1.000  H
  C234     1.0000 0.99260  0.32700  0.79690  Biso   1.000  C
  H192     1.0000 0.03050  0.33540  0.76820  Biso   1.000  H
  C235     1.0000 0.11980  0.29780  0.35370  Biso   1.000  C
  H193     1.0000 0.17540  0.27690  0.35000  Biso   1.000  H
  C236     1.0000 0.27650  0.02800  0.10460  Biso   1.000  C
  H194     1.0000 0.25380  0.07030  0.09210  Biso   1.000  H
  C237     1.0000 0.67710  0.59000  0.17460  Biso   1.000  C
  C238     1.0000 0.82320  0.55900  0.20050  Biso   1.000  C
  H195     1.0000 0.82910  0.59710  0.22600  Biso   1.000  H
  H196     1.0000 0.84750  0.57390  0.16630  Biso   1.000  H
  C239     1.0000 0.58930  0.57420  0.17980  Biso   1.000  C
  H197     1.0000 0.57130  0.53260  0.19600  Biso   1.000  H
  C240     1.0000 0.90550  0.30160  0.78720  Biso   1.000  C
  H198     1.0000 0.88730  0.29380  0.75200  Biso   1.000  H
  C241     1.0000 0.02120  0.33930  0.84790  Biso   1.000  C
  H199     1.0000 0.07820  0.35600  0.85480  Biso   1.000  H
  C242     1.0000 0.06880  0.04930  0.01930  Biso   1.000  C
  H200     1.0000 0.09900  0.08410  0.03810  Biso   1.000  H
  C243     1.0000 0.87110  0.49450  0.22060  Biso   1.000  C
  H201     1.0000 0.92270  0.50800  0.24150  Biso   1.000  H
  H202     1.0000 0.83190  0.46710  0.24340  Biso   1.000  H
  C244     1.0000 0.96670  0.35710  0.21900  Biso   1.000  C
  H203     1.0000 0.97200  0.30700  0.21310  Biso   1.000  H
  H204     1.0000 0.02420  0.37860  0.21240  Biso   1.000  H
  C245     1.0000 0.70080  0.04890  0.81470  Biso   1.000  C
  H205     1.0000 0.67830  0.05190  0.78000  Biso   1.000  H
  C246     1.0000 0.02290  0.55350  0.97120  Biso   1.000  C
  H206     1.0000 0.02260  0.58920  0.94580  Biso   1.000  H
  C247     1.0000 0.76830  0.97570  0.88490  Biso   1.000  C
  H207     1.0000 0.79090  0.93330  0.89730  Biso   1.000  H
  C248     1.0000 0.73700  0.98480  0.83370  Biso   1.000  C
  H208     1.0000 0.73950  0.94690  0.81010  Biso   1.000  H
  Co7      1.0000 0.71230  0.25065  0.93998  Biso   1.000  Co
  Co8      1.0000 0.33644  0.75281  0.05504  Biso   1.000  Co
  N25      1.0000 0.73660  0.14680  0.94130  Biso   1.000  N
  N26      1.0000 0.78920  0.04310  0.96860  Biso   1.000  N
  N27      1.0000 0.26020  0.95800  0.01940  Biso   1.000  N
  N28      1.0000 0.31310  0.85710  0.04960  Biso   1.000  N
  N29      1.0000 0.97090  0.32940  0.94320  Biso   1.000  N
  N30      1.0000 0.83580  0.28960  0.92840  Biso   1.000  N
  N31      1.0000 0.21580  0.71390  0.07390  Biso   1.000  N
  N32      1.0000 0.07940  0.67170  0.06620  Biso   1.000  N
  O22      1.0000 0.20840  0.25200  0.44680  Biso   1.000  O
  O23      1.0000 0.10240  0.29510  0.49680  Biso   1.000  O
  O24      1.0000 0.51180  0.78290  0.08420  Biso   1.000  O
  O25      1.0000 0.40490  0.71500  0.11459  Biso   1.000  O
  O26      1.0000 0.93840  0.37090  0.27290  Biso   1.000  O
  O27      1.0000 0.89670  0.45570  0.17730  Biso   1.000  O
  O28      1.0000 0.73450  0.53960  0.19500  Biso   1.000  O
