data_image0
_cell_length_a       7.6483
_cell_length_b       30.7546
_cell_length_c       11.2156
_cell_angle_alpha    90
_cell_angle_beta     90
_cell_angle_gamma    90

_symmetry_space_group_name_H-M    "P 1"
_symmetry_int_tables_number       1

loop_
  _symmetry_equiv_pos_as_xyz
  'x, y, z'

loop_
  _atom_site_label
  _atom_site_occupancy
  _atom_site_fract_x
  _atom_site_fract_y
  _atom_site_fract_z
  _atom_site_thermal_displace_type
  _atom_site_B_iso_or_equiv
  _atom_site_type_symbol
  C1       1.0000 0.59460  0.34770  0.62340  Biso   1.000  C
  H1       1.0000 0.62020  0.33840  0.54640  Biso   1.000  H
  C2       1.0000 0.53990  0.34840  0.81160  Biso   1.000  C
  H2       1.0000 0.51940  0.33910  0.88930  Biso   1.000  H
  C3       1.0000 0.54120  0.38980  0.77500  Biso   1.000  C
  H3       1.0000 0.52330  0.41430  0.82200  Biso   1.000  H
  C4       1.0000 0.58850  0.42710  0.57670  Biso   1.000  C
  H4       1.0000 0.63760  0.41830  0.50070  Biso   1.000  H
  H5       1.0000 0.66670  0.44830  0.61230  Biso   1.000  H
  C5       1.0000 0.40900  0.44780  0.55660  Biso   1.000  C
  C6       1.0000 0.35490  0.48280  0.62470  Biso   1.000  C
  H6       1.0000 0.42630  0.49320  0.68550  Biso   1.000  H
  C7       1.0000 0.19280  0.50280  0.60280  Biso   1.000  C
  H7       1.0000 0.15740  0.52580  0.65090  Biso   1.000  H
  C8       1.0000 0.08560  0.48930  0.51240  Biso   1.000  C
  C9       1.0000 0.14280  0.45310  0.44700  Biso   1.000  C
  H8       1.0000 0.07220  0.44230  0.38650  Biso   1.000  H
  C10      1.0000 0.30050  0.43340  0.47010  Biso   1.000  C
  H9       1.0000 0.33330  0.40930  0.42500  Biso   1.000  H
  N1       1.0000 0.57420  0.32166  0.71550  Biso   1.000  N
  N2       1.0000 0.57380  0.38920  0.65520  Biso   1.000  N
  C11      1.0000 0.40540  0.84770  0.37660  Biso   1.000  C
  H10      1.0000 0.37980  0.83840  0.45360  Biso   1.000  H
  C12      1.0000 0.46010  0.84840  0.18840  Biso   1.000  C
  H11      1.0000 0.48060  0.83910  0.11070  Biso   1.000  H
  C13      1.0000 0.45880  0.88980  0.22500  Biso   1.000  C
  H12      1.0000 0.47670  0.91430  0.17800  Biso   1.000  H
  C14      1.0000 0.41150  0.92710  0.42330  Biso   1.000  C
  H13      1.0000 0.36240  0.91830  0.49930  Biso   1.000  H
  H14      1.0000 0.33330  0.94830  0.38770  Biso   1.000  H
  C15      1.0000 0.59100  0.94780  0.44340  Biso   1.000  C
  C16      1.0000 0.64510  0.98280  0.37530  Biso   1.000  C
  H15      1.0000 0.57370  0.99320  0.31450  Biso   1.000  H
  C17      1.0000 0.80720  0.00280  0.39720  Biso   1.000  C
  H16      1.0000 0.84260  0.02580  0.34910  Biso   1.000  H
  C18      1.0000 0.91440  0.98930  0.48760  Biso   1.000  C
  C19      1.0000 0.85720  0.95310  0.55300  Biso   1.000  C
  H17      1.0000 0.92780  0.94230  0.61350  Biso   1.000  H
  C20      1.0000 0.69950  0.93340  0.52990  Biso   1.000  C
  H18      1.0000 0.66670  0.90930  0.57500  Biso   1.000  H
  N3       1.0000 0.42580  0.82166  0.28450  Biso   1.000  N
  N4       1.0000 0.42620  0.88920  0.34480  Biso   1.000  N
  C21      1.0000 0.40540  0.65230  0.37660  Biso   1.000  C
  H19      1.0000 0.37980  0.66160  0.45360  Biso   1.000  H
  C22      1.0000 0.46010  0.65160  0.18840  Biso   1.000  C
  H20      1.0000 0.48060  0.66090  0.11070  Biso   1.000  H
  C23      1.0000 0.45880  0.61020  0.22500  Biso   1.000  C
  H21      1.0000 0.47670  0.58570  0.17800  Biso   1.000  H
  C24      1.0000 0.41150  0.57290  0.42330  Biso   1.000  C
  H22      1.0000 0.36240  0.58170  0.49930  Biso   1.000  H
  H23      1.0000 0.33330  0.55170  0.38770  Biso   1.000  H
  C25      1.0000 0.59100  0.55220  0.44340  Biso   1.000  C
  C26      1.0000 0.64510  0.51720  0.37530  Biso   1.000  C
  H24      1.0000 0.57370  0.50680  0.31450  Biso   1.000  H
  C27      1.0000 0.80720  0.49720  0.39720  Biso   1.000  C
  H25      1.0000 0.84260  0.47420  0.34910  Biso   1.000  H
  C28      1.0000 0.91440  0.51070  0.48760  Biso   1.000  C
  C29      1.0000 0.85720  0.54690  0.55300  Biso   1.000  C
  H26      1.0000 0.92780  0.55770  0.61350  Biso   1.000  H
  C30      1.0000 0.69950  0.56660  0.52990  Biso   1.000  C
  H27      1.0000 0.66670  0.59070  0.57500  Biso   1.000  H
  N5       1.0000 0.42580  0.67834  0.28450  Biso   1.000  N
  N6       1.0000 0.42620  0.61080  0.34480  Biso   1.000  N
  C31      1.0000 0.59460  0.15230  0.62340  Biso   1.000  C
  H28      1.0000 0.62020  0.16160  0.54640  Biso   1.000  H
  C32      1.0000 0.53990  0.15160  0.81160  Biso   1.000  C
  H29      1.0000 0.51940  0.16090  0.88930  Biso   1.000  H
  C33      1.0000 0.54120  0.11020  0.77500  Biso   1.000  C
  H30      1.0000 0.52330  0.08570  0.82200  Biso   1.000  H
  C34      1.0000 0.58850  0.07290  0.57670  Biso   1.000  C
  H31      1.0000 0.63760  0.08170  0.50070  Biso   1.000  H
  H32      1.0000 0.66670  0.05170  0.61230  Biso   1.000  H
  C35      1.0000 0.40900  0.05220  0.55660  Biso   1.000  C
  C36      1.0000 0.35490  0.01720  0.62470  Biso   1.000  C
  H33      1.0000 0.42630  0.00680  0.68550  Biso   1.000  H
  C37      1.0000 0.19280  0.99720  0.60280  Biso   1.000  C
  H34      1.0000 0.15740  0.97420  0.65090  Biso   1.000  H
  C38      1.0000 0.08560  0.01070  0.51240  Biso   1.000  C
  C39      1.0000 0.14280  0.04690  0.44700  Biso   1.000  C
  H35      1.0000 0.07220  0.05770  0.38650  Biso   1.000  H
  C40      1.0000 0.30050  0.06660  0.47010  Biso   1.000  C
  H36      1.0000 0.33330  0.09070  0.42500  Biso   1.000  H
  N7       1.0000 0.57420  0.17834  0.71550  Biso   1.000  N
  N8       1.0000 0.57380  0.11080  0.65520  Biso   1.000  N
  Cd1      1.0000 0.59523  0.25000  0.71833  Biso   1.000  Cd
  Cd2      1.0000 0.40477  0.75000  0.28167  Biso   1.000  Cd
  C41      1.0000 0.90540  0.65230  0.12340  Biso   1.000  C
  H37      1.0000 0.87980  0.66160  0.04640  Biso   1.000  H
  C42      1.0000 0.96010  0.65160  0.31160  Biso   1.000  C
  H38      1.0000 0.98060  0.66090  0.38930  Biso   1.000  H
  C43      1.0000 0.95880  0.61020  0.27500  Biso   1.000  C
  H39      1.0000 0.97670  0.58570  0.32200  Biso   1.000  H
  C44      1.0000 0.91150  0.57290  0.07670  Biso   1.000  C
  H40      1.0000 0.86240  0.58170  0.00070  Biso   1.000  H
  H41      1.0000 0.83330  0.55170  0.11230  Biso   1.000  H
  C45      1.0000 0.09100  0.55220  0.05660  Biso   1.000  C
  C46      1.0000 0.14510  0.51720  0.12470  Biso   1.000  C
  H42      1.0000 0.07370  0.50680  0.18550  Biso   1.000  H
  C47      1.0000 0.30720  0.49720  0.10280  Biso   1.000  C
  H43      1.0000 0.34260  0.47420  0.15090  Biso   1.000  H
  C48      1.0000 0.41440  0.51070  0.01240  Biso   1.000  C
  C49      1.0000 0.35720  0.54690  0.94700  Biso   1.000  C
  H44      1.0000 0.42780  0.55770  0.88650  Biso   1.000  H
  C50      1.0000 0.19950  0.56660  0.97010  Biso   1.000  C
  H45      1.0000 0.16670  0.59070  0.92500  Biso   1.000  H
  N9       1.0000 0.92580  0.67834  0.21550  Biso   1.000  N
  N10      1.0000 0.92620  0.61080  0.15520  Biso   1.000  N
  C51      1.0000 0.09460  0.15230  0.87660  Biso   1.000  C
  H46      1.0000 0.12020  0.16160  0.95360  Biso   1.000  H
  C52      1.0000 0.03990  0.15160  0.68840  Biso   1.000  C
  H47      1.0000 0.01940  0.16090  0.61070  Biso   1.000  H
  C53      1.0000 0.04120  0.11020  0.72500  Biso   1.000  C
  H48      1.0000 0.02330  0.08570  0.67800  Biso   1.000  H
  C54      1.0000 0.08850  0.07290  0.92330  Biso   1.000  C
  H49      1.0000 0.13760  0.08170  0.99930  Biso   1.000  H
  H50      1.0000 0.16670  0.05170  0.88770  Biso   1.000  H
  C55      1.0000 0.90900  0.05220  0.94340  Biso   1.000  C
  C56      1.0000 0.85490  0.01720  0.87530  Biso   1.000  C
  H51      1.0000 0.92630  0.00680  0.81450  Biso   1.000  H
  C57      1.0000 0.69280  0.99720  0.89720  Biso   1.000  C
  H52      1.0000 0.65740  0.97420  0.84910  Biso   1.000  H
  C58      1.0000 0.58560  0.01070  0.98760  Biso   1.000  C
  C59      1.0000 0.64280  0.04690  0.05300  Biso   1.000  C
  H53      1.0000 0.57220  0.05770  0.11350  Biso   1.000  H
  C60      1.0000 0.80050  0.06660  0.02990  Biso   1.000  C
  H54      1.0000 0.83330  0.09070  0.07500  Biso   1.000  H
  N11      1.0000 0.07420  0.17834  0.78450  Biso   1.000  N
  N12      1.0000 0.07380  0.11080  0.84480  Biso   1.000  N
  C61      1.0000 0.09460  0.34770  0.87660  Biso   1.000  C
  H55      1.0000 0.12020  0.33840  0.95360  Biso   1.000  H
  C62      1.0000 0.03990  0.34840  0.68840  Biso   1.000  C
  H56      1.0000 0.01940  0.33910  0.61070  Biso   1.000  H
  C63      1.0000 0.04120  0.38980  0.72500  Biso   1.000  C
  H57      1.0000 0.02330  0.41430  0.67800  Biso   1.000  H
  C64      1.0000 0.08850  0.42710  0.92330  Biso   1.000  C
  H58      1.0000 0.13760  0.41830  0.99930  Biso   1.000  H
  H59      1.0000 0.16670  0.44830  0.88770  Biso   1.000  H
  C65      1.0000 0.90900  0.44780  0.94340  Biso   1.000  C
  C66      1.0000 0.85490  0.48280  0.87530  Biso   1.000  C
  H60      1.0000 0.92630  0.49320  0.81450  Biso   1.000  H
  C67      1.0000 0.69280  0.50280  0.89720  Biso   1.000  C
  H61      1.0000 0.65740  0.52580  0.84910  Biso   1.000  H
  C68      1.0000 0.58560  0.48930  0.98760  Biso   1.000  C
  C69      1.0000 0.64280  0.45310  0.05300  Biso   1.000  C
  H62      1.0000 0.57220  0.44230  0.11350  Biso   1.000  H
  C70      1.0000 0.80050  0.43340  0.02990  Biso   1.000  C
  H63      1.0000 0.83330  0.40930  0.07500  Biso   1.000  H
  N13      1.0000 0.07420  0.32166  0.78450  Biso   1.000  N
  N14      1.0000 0.07380  0.38920  0.84480  Biso   1.000  N
  C71      1.0000 0.90540  0.84770  0.12340  Biso   1.000  C
  H64      1.0000 0.87980  0.83840  0.04640  Biso   1.000  H
  C72      1.0000 0.96010  0.84840  0.31160  Biso   1.000  C
  H65      1.0000 0.98060  0.83910  0.38930  Biso   1.000  H
  C73      1.0000 0.95880  0.88980  0.27500  Biso   1.000  C
  H66      1.0000 0.97670  0.91430  0.32200  Biso   1.000  H
  C74      1.0000 0.91150  0.92710  0.07670  Biso   1.000  C
  H67      1.0000 0.86240  0.91830  0.00070  Biso   1.000  H
  H68      1.0000 0.83330  0.94830  0.11230  Biso   1.000  H
  C75      1.0000 0.09100  0.94780  0.05660  Biso   1.000  C
  C76      1.0000 0.14510  0.98280  0.12470  Biso   1.000  C
  H69      1.0000 0.07370  0.99320  0.18550  Biso   1.000  H
  C77      1.0000 0.30720  0.00280  0.10280  Biso   1.000  C
  H70      1.0000 0.34260  0.02580  0.15090  Biso   1.000  H
  C78      1.0000 0.41440  0.98930  0.01240  Biso   1.000  C
  C79      1.0000 0.35720  0.95310  0.94700  Biso   1.000  C
  H71      1.0000 0.42780  0.94230  0.88650  Biso   1.000  H
  C80      1.0000 0.19950  0.93340  0.97010  Biso   1.000  C
  H72      1.0000 0.16670  0.90930  0.92500  Biso   1.000  H
  N15      1.0000 0.92580  0.82166  0.21550  Biso   1.000  N
  N16      1.0000 0.92620  0.88920  0.15520  Biso   1.000  N
  Cd3      1.0000 0.90477  0.75000  0.21833  Biso   1.000  Cd
  Cd4      1.0000 0.09523  0.25000  0.78167  Biso   1.000  Cd
