data_image0
_cell_length_a       8.77
_cell_length_b       7.25
_cell_length_c       9.17
_cell_angle_alpha    90
_cell_angle_beta     98
_cell_angle_gamma    90

_symmetry_space_group_name_H-M    "P 1"
_symmetry_int_tables_number       1

loop_
  _symmetry_equiv_pos_as_xyz
  'x, y, z'

loop_
  _atom_site_label
  _atom_site_occupancy
  _atom_site_fract_x
  _atom_site_fract_y
  _atom_site_fract_z
  _atom_site_thermal_displace_type
  _atom_site_B_iso_or_equiv
  _atom_site_type_symbol
  C1       1.0000 0.03400  0.22600  0.27700  Biso   1.000  C
  O1       1.0000 0.09500  0.10300  0.20700  Biso   1.000  O
  O2       1.0000 0.08700  0.27900  0.40500  Biso   1.000  O
  C2       1.0000 0.96600  0.72600  0.22300  Biso   1.000  C
  O3       1.0000 0.90500  0.60300  0.29300  Biso   1.000  O
  O4       1.0000 0.91300  0.77900  0.09500  Biso   1.000  O
  C3       1.0000 0.96600  0.77400  0.72300  Biso   1.000  C
  O5       1.0000 0.90500  0.89700  0.79300  Biso   1.000  O
  O6       1.0000 0.91300  0.72100  0.59500  Biso   1.000  O
  C4       1.0000 0.03400  0.27400  0.77700  Biso   1.000  C
  O7       1.0000 0.09500  0.39700  0.70700  Biso   1.000  O
  O8       1.0000 0.08700  0.22100  0.90500  Biso   1.000  O
  Cu1      1.0000 0.00000  0.00000  0.00000  Biso   1.000  Cu
  Cu2      1.0000 0.00000  0.50000  0.50000  Biso   1.000  Cu
