data_image0
_cell_length_a       11.0826
_cell_length_b       9.1504
_cell_length_c       19.4964
_cell_angle_alpha    93.7273
_cell_angle_beta     91.3088
_cell_angle_gamma    117.621

_symmetry_space_group_name_H-M    "P 1"
_symmetry_int_tables_number       1

loop_
  _symmetry_equiv_pos_as_xyz
  'x, y, z'

loop_
  _atom_site_label
  _atom_site_occupancy
  _atom_site_fract_x
  _atom_site_fract_y
  _atom_site_fract_z
  _atom_site_thermal_displace_type
  _atom_site_B_iso_or_equiv
  _atom_site_type_symbol
  Zn1      1.0000 0.14548  0.70571  0.01183  Biso   1.000  Zn
  Zn2      1.0000 0.81628  0.26161  0.99107  Biso   1.000  Zn
  Zn3      1.0000 0.49276  0.98764  0.49133  Biso   1.000  Zn
  Zn4      1.0000 0.98965  0.00031  0.00431  Biso   1.000  Zn
  N1       1.0000 0.62603  0.21637  0.44357  Biso   1.000  N
  N2       1.0000 0.58586  0.33365  0.46402  Biso   1.000  N
  N3       1.0000 0.66852  0.47245  0.43417  Biso   1.000  N
  C1       1.0000 0.73523  0.28094  0.40066  Biso   1.000  C
  H1       1.0000 0.78493  0.20821  0.37757  Biso   1.000  H
  C2       1.0000 0.76211  0.44224  0.39486  Biso   1.000  C
  H2       1.0000 0.84007  0.53727  0.36627  Biso   1.000  H
  N4       1.0000 0.88978  0.75496  0.98709  Biso   1.000  N
  N5       1.0000 0.94486  0.65041  0.99572  Biso   1.000  N
  N6       1.0000 0.84073  0.49231  0.98206  Biso   1.000  N
  C3       1.0000 0.75018  0.66267  0.96840  Biso   1.000  C
  H3       1.0000 0.68384  0.72084  0.95977  Biso   1.000  H
  C4       1.0000 0.71891  0.49720  0.96506  Biso   1.000  C
  H4       1.0000 0.62025  0.38340  0.95274  Biso   1.000  H
  O1       1.0000 0.53502  0.94023  0.40052  Biso   1.000  O
  O2       1.0000 0.68040  0.82050  0.38431  Biso   1.000  O
  O3       1.0000 0.70734  0.21540  0.07054  Biso   1.000  O
  O4       1.0000 0.80952  0.05076  0.04690  Biso   1.000  O
  C5       1.0000 0.61657  0.90049  0.36368  Biso   1.000  C
  C6       1.0000 0.64311  0.94670  0.29089  Biso   1.000  C
  C7       1.0000 0.56293  0.01118  0.25996  Biso   1.000  C
  H5       1.0000 0.48049  0.02392  0.29007  Biso   1.000  H
  C8       1.0000 0.58821  0.05709  0.19291  Biso   1.000  C
  H6       1.0000 0.52637  0.10746  0.16867  Biso   1.000  H
  C9       1.0000 0.69645  0.04013  0.15600  Biso   1.000  C
  C10      1.0000 0.77607  0.97425  0.18620  Biso   1.000  C
  H7       1.0000 0.86209  0.96574  0.15693  Biso   1.000  H
  C11      1.0000 0.74956  0.92842  0.25326  Biso   1.000  C
  H8       1.0000 0.81225  0.88006  0.27790  Biso   1.000  H
  C12      1.0000 0.73823  0.10243  0.08716  Biso   1.000  C
  O5       1.0000 0.07214  0.98376  0.09825  Biso   1.000  O
  O6       1.0000 0.21164  0.85324  0.09363  Biso   1.000  O
  O7       1.0000 0.25200  0.13895  0.45866  Biso   1.000  O
  O8       1.0000 0.31126  0.92913  0.44895  Biso   1.000  O
  C13      1.0000 0.14230  0.92265  0.12634  Biso   1.000  C
  C14      1.0000 0.15151  0.93102  0.20460  Biso   1.000  C
  C15      1.0000 0.11347  0.03638  0.24840  Biso   1.000  C
  H9       1.0000 0.06951  0.10786  0.22507  Biso   1.000  H
  C16      1.0000 0.13603  0.05322  0.32080  Biso   1.000  C
  H10      1.0000 0.11222  0.13906  0.35565  Biso   1.000  H
  C17      1.0000 0.19848  0.96638  0.35031  Biso   1.000  C
  C18      1.0000 0.22751  0.85309  0.30682  Biso   1.000  C
  H11      1.0000 0.27923  0.79047  0.33105  Biso   1.000  H
  C19      1.0000 0.20410  0.83529  0.23443  Biso   1.000  C
  H12      1.0000 0.23155  0.75180  0.19997  Biso   1.000  H
  C20      1.0000 0.25532  0.01073  0.42490  Biso   1.000  C
  N7       1.0000 0.08180  0.23378  0.04366  Biso   1.000  N
  N8       1.0000 0.03995  0.34515  0.02646  Biso   1.000  N
  N9       1.0000 0.14062  0.49990  0.05094  Biso   1.000  N
  C21      1.0000 0.20888  0.31709  0.07964  Biso   1.000  C
  H13      1.0000 0.26190  0.25103  0.09926  Biso   1.000  H
  C22      1.0000 0.24664  0.48517  0.08440  Biso   1.000  C
  H14      1.0000 0.34017  0.59428  0.10844  Biso   1.000  H
