data_image0
_cell_length_a       11.841
_cell_length_b       13.837
_cell_length_c       14.269
_cell_angle_alpha    99.426
_cell_angle_beta     91.965
_cell_angle_gamma    110.705

_symmetry_space_group_name_H-M    "P 1"
_symmetry_int_tables_number       1

loop_
  _symmetry_equiv_pos_as_xyz
  'x, y, z'

loop_
  _atom_site_label
  _atom_site_occupancy
  _atom_site_fract_x
  _atom_site_fract_y
  _atom_site_fract_z
  _atom_site_thermal_displace_type
  _atom_site_B_iso_or_equiv
  _atom_site_type_symbol
  Cu1      1.0000 0.55105  0.50207  0.38211  Biso   1.000  Cu
  Cu2      1.0000 0.31778  0.46512  0.00415  Biso   1.000  Cu
  Cu3      1.0000 0.25323  0.44420  0.22049  Biso   1.000  Cu
  C1       1.0000 0.96630  0.96600  0.20430  Biso   1.000  C
  H1       1.0000 0.90800  0.90070  0.17810  Biso   1.000  H
  C2       1.0000 0.85810  0.35930  0.32970  Biso   1.000  C
  H2       1.0000 0.78430  0.35050  0.35480  Biso   1.000  H
  C3       1.0000 0.95950  0.37790  0.39010  Biso   1.000  C
  H3       1.0000 0.95500  0.37760  0.45500  Biso   1.000  H
  C4       1.0000 0.97770  0.37220  0.19880  Biso   1.000  C
  H4       1.0000 0.98290  0.36930  0.13360  Biso   1.000  H
  C5       1.0000 0.10690  0.12310  0.18360  Biso   1.000  C
  C6       1.0000 0.04440  0.36730  0.71880  Biso   1.000  C
  H5       1.0000 0.99380  0.34640  0.66210  Biso   1.000  H
  C7       1.0000 0.99000  0.99290  0.30210  Biso   1.000  C
  H6       1.0000 0.94940  0.94680  0.34110  Biso   1.000  H
  C8       1.0000 0.24120  0.42820  0.80260  Biso   1.000  C
  C9       1.0000 0.07560  0.39660  0.88940  Biso   1.000  C
  H7       1.0000 0.04420  0.39590  0.94820  Biso   1.000  H
  C10      1.0000 0.06750  0.39680  0.35100  Biso   1.000  C
  C11      1.0000 0.16100  0.18440  0.11300  Biso   1.000  C
  C12      1.0000 0.17010  0.40030  0.71820  Biso   1.000  C
  H8       1.0000 0.20500  0.40330  0.66090  Biso   1.000  H
  C13      1.0000 0.18460  0.41980  0.40410  Biso   1.000  C
  C14      1.0000 0.99680  0.36660  0.80690  Biso   1.000  C
  H9       1.0000 0.91350  0.34630  0.81020  Biso   1.000  H
  C15      1.0000 0.37340  0.45880  0.81380  Biso   1.000  C
  C16      1.0000 0.86370  0.35360  0.23340  Biso   1.000  C
  H10      1.0000 0.79440  0.33800  0.19230  Biso   1.000  H
  C17      1.0000 0.13830  0.15710  0.28130  Biso   1.000  C
  H11      1.0000 0.19870  0.22190  0.30580  Biso   1.000  H
  C18      1.0000 0.07660  0.09090  0.34090  Biso   1.000  C
  H12      1.0000 0.09310  0.11210  0.40680  Biso   1.000  H
  O1       1.0000 0.21340  0.48150  0.10140  Biso   1.000  O
  N1       1.0000 0.56310  0.49910  0.80320  Biso   1.000  N
  N2       1.0000 0.54560  0.49340  0.89200  Biso   1.000  N
  N3       1.0000 0.42580  0.46580  0.89970  Biso   1.000  N
  N4       1.0000 0.19590  0.42660  0.88650  Biso   1.000  N
  N5       1.0000 0.23770  0.28330  0.12340  Biso   1.000  N
  N6       1.0000 0.25990  0.29640  0.03260  Biso   1.000  N
  N7       1.0000 0.19860  0.21020  0.97010  Biso   1.000  N
  N8       1.0000 0.13600  0.13810  0.02130  Biso   1.000  N
  N9       1.0000 0.02290  0.02920  0.14500  Biso   1.000  N
  N10      1.0000 0.37820  0.46050  0.41920  Biso   1.000  N
  N11      1.0000 0.33590  0.45940  0.50460  Biso   1.000  N
  N12      1.0000 0.45700  0.47760  0.75080  Biso   1.000  N
  N13      1.0000 0.28200  0.43400  0.35540  Biso   1.000  N
  N14      1.0000 0.21510  0.43430  0.49620  Biso   1.000  N
  N15      1.0000 0.07920  0.39370  0.25570  Biso   1.000  N
  Cu4      1.0000 0.44895  0.49793  0.61789  Biso   1.000  Cu
  Cu5      1.0000 0.68222  0.53488  0.99585  Biso   1.000  Cu
  Cu6      1.0000 0.74677  0.55580  0.77951  Biso   1.000  Cu
  C19      1.0000 0.03370  0.03400  0.79570  Biso   1.000  C
  H13      1.0000 0.09200  0.09930  0.82190  Biso   1.000  H
  C20      1.0000 0.14190  0.64070  0.67030  Biso   1.000  C
  H14      1.0000 0.21570  0.64950  0.64520  Biso   1.000  H
  C21      1.0000 0.04050  0.62210  0.60990  Biso   1.000  C
  H15      1.0000 0.04500  0.62240  0.54500  Biso   1.000  H
  C22      1.0000 0.02230  0.62780  0.80120  Biso   1.000  C
  H16      1.0000 0.01710  0.63070  0.86640  Biso   1.000  H
  C23      1.0000 0.89310  0.87690  0.81640  Biso   1.000  C
  C24      1.0000 0.95560  0.63270  0.28120  Biso   1.000  C
  H17      1.0000 0.00620  0.65360  0.33790  Biso   1.000  H
  C25      1.0000 0.01000  0.00710  0.69790  Biso   1.000  C
  H18      1.0000 0.05060  0.05320  0.65890  Biso   1.000  H
  C26      1.0000 0.75880  0.57180  0.19740  Biso   1.000  C
  C27      1.0000 0.92440  0.60340  0.11060  Biso   1.000  C
  H19      1.0000 0.95580  0.60410  0.05180  Biso   1.000  H
  C28      1.0000 0.93250  0.60320  0.64900  Biso   1.000  C
  C29      1.0000 0.83900  0.81560  0.88700  Biso   1.000  C
  C30      1.0000 0.82990  0.59970  0.28180  Biso   1.000  C
  H20      1.0000 0.79500  0.59670  0.33910  Biso   1.000  H
  C31      1.0000 0.81540  0.58020  0.59590  Biso   1.000  C
  C32      1.0000 0.00320  0.63340  0.19310  Biso   1.000  C
  H21      1.0000 0.08650  0.65370  0.18980  Biso   1.000  H
  C33      1.0000 0.62660  0.54120  0.18620  Biso   1.000  C
  C34      1.0000 0.13630  0.64640  0.76660  Biso   1.000  C
  H22      1.0000 0.20560  0.66200  0.80770  Biso   1.000  H
  C35      1.0000 0.86170  0.84290  0.71870  Biso   1.000  C
  H23      1.0000 0.80130  0.77810  0.69420  Biso   1.000  H
  C36      1.0000 0.92340  0.90910  0.65910  Biso   1.000  C
  H24      1.0000 0.90690  0.88790  0.59320  Biso   1.000  H
  O2       1.0000 0.78660  0.51850  0.89860  Biso   1.000  O
  N16      1.0000 0.43690  0.50090  0.19680  Biso   1.000  N
  N17      1.0000 0.45440  0.50660  0.10800  Biso   1.000  N
  N18      1.0000 0.57420  0.53420  0.10030  Biso   1.000  N
  N19      1.0000 0.80410  0.57340  0.11350  Biso   1.000  N
  N20      1.0000 0.76230  0.71670  0.87660  Biso   1.000  N
  N21      1.0000 0.74010  0.70360  0.96740  Biso   1.000  N
  N22      1.0000 0.80140  0.78980  0.02990  Biso   1.000  N
  N23      1.0000 0.86400  0.86190  0.97870  Biso   1.000  N
  N24      1.0000 0.97710  0.97080  0.85500  Biso   1.000  N
  N25      1.0000 0.62180  0.53950  0.58080  Biso   1.000  N
  N26      1.0000 0.66410  0.54060  0.49540  Biso   1.000  N
  N27      1.0000 0.54300  0.52240  0.24920  Biso   1.000  N
  N28      1.0000 0.71800  0.56600  0.64460  Biso   1.000  N
  N29      1.0000 0.78490  0.56570  0.50380  Biso   1.000  N
  N30      1.0000 0.92080  0.60630  0.74430  Biso   1.000  N
  Cu7      1.0000 0.00000  0.00000  0.00000  Biso   1.000  Cu
