data_image0
_cell_length_a       25.469
_cell_length_b       15.3912
_cell_length_c       17.1439
_cell_angle_alpha    90
_cell_angle_beta     98.791
_cell_angle_gamma    90

_symmetry_space_group_name_H-M    "P 1"
_symmetry_int_tables_number       1

loop_
  _symmetry_equiv_pos_as_xyz
  'x, y, z'

loop_
  _atom_site_label
  _atom_site_occupancy
  _atom_site_fract_x
  _atom_site_fract_y
  _atom_site_fract_z
  _atom_site_thermal_displace_type
  _atom_site_B_iso_or_equiv
  _atom_site_type_symbol
  Cd1      1.0000 0.78020  0.85178  0.74826  Biso   1.000  Cd
  N1       1.0000 0.79767  0.77850  0.86440  Biso   1.000  N
  N2       1.0000 0.70804  0.94300  0.75180  Biso   1.000  N
  C1       1.0000 0.77180  0.71440  0.89050  Biso   1.000  C
  H1       1.0000 0.73950  0.69370  0.86440  Biso   1.000  H
  N3       1.0000 0.79620  0.68160  0.95800  Biso   1.000  N
  N4       1.0000 0.63520  0.01030  0.69540  Biso   1.000  N
  C2       1.0000 0.81450  0.53560  0.01700  Biso   1.000  C
  C3       1.0000 0.65970  0.93360  0.71070  Biso   1.000  C
  H2       1.0000 0.64470  0.88020  0.69440  Biso   1.000  H
  C4       1.0000 0.51930  0.10450  0.72520  Biso   1.000  C
  H3       1.0000 0.53190  0.15700  0.70870  Biso   1.000  H
  C5       1.0000 0.51890  0.95080  0.72570  Biso   1.000  C
  H4       1.0000 0.53150  0.89830  0.70920  Biso   1.000  H
  C6       1.0000 0.85920  0.53850  0.07700  Biso   1.000  C
  H5       1.0000 0.86590  0.58770  0.10850  Biso   1.000  H
  C7       1.0000 0.77740  0.61080  0.00450  Biso   1.000  C
  H6       1.0000 0.74330  0.59070  0.97770  Biso   1.000  H
  H7       1.0000 0.77210  0.63350  0.05540  Biso   1.000  H
  C8       1.0000 0.53880  0.02860  0.70050  Biso   1.000  C
  C9       1.0000 0.71330  0.03170  0.76260  Biso   1.000  C
  H8       1.0000 0.74300  0.05920  0.78990  Biso   1.000  H
  C10      1.0000 0.66930  0.07230  0.72800  Biso   1.000  C
  H9       1.0000 0.66330  0.13190  0.72670  Biso   1.000  H
  C11      1.0000 0.58240  0.02590  0.65010  Biso   1.000  C
  H10      1.0000 0.57460  0.98030  0.61100  Biso   1.000  H
  H11      1.0000 0.58290  0.08060  0.62220  Biso   1.000  H
  C12      1.0000 0.84250  0.78620  0.91830  Biso   1.000  C
  H12      1.0000 0.86950  0.82610  0.91530  Biso   1.000  H
  C13      1.0000 0.84220  0.72840  0.97590  Biso   1.000  C
  H13      1.0000 0.86820  0.72120  0.01980  Biso   1.000  H
  C14      1.0000 0.89300  0.46770  0.08860  Biso   1.000  C
  H14      1.0000 0.92230  0.47030  0.12810  Biso   1.000  H
  C15      1.0000 0.88470  0.39470  0.04430  Biso   1.000  C
  C16      1.0000 0.92060  0.31590  0.05920  Biso   1.000  C
  H15      1.0000 0.91710  0.28040  0.01200  Biso   1.000  H
  H16      1.0000 0.95730  0.33480  0.07140  Biso   1.000  H
  C17      1.0000 0.84140  0.39280  0.98450  Biso   1.000  C
  H17      1.0000 0.83490  0.34360  0.95300  Biso   1.000  H
  C18      1.0000 0.80820  0.46280  0.97160  Biso   1.000  C
  H18      1.0000 0.78020  0.46060  0.93000  Biso   1.000  H
  N5       1.0000 0.90685  0.26410  0.12500  Biso   1.000  N
  C19      1.0000 0.93900  0.20380  0.16800  Biso   1.000  C
  H19      1.0000 0.97420  0.19110  0.16360  Biso   1.000  H
  C20      1.0000 0.90950  0.16690  0.21770  Biso   1.000  C
  H20      1.0000 0.92130  0.12310  0.25350  Biso   1.000  H
  N6       1.0000 0.85994  0.20290  0.20830  Biso   1.000  N
  C21      1.0000 0.85950  0.25960  0.15110  Biso   1.000  C
  H21      1.0000 0.83010  0.29290  0.13090  Biso   1.000  H
  Cd2      1.0000 0.21980  0.85178  0.75174  Biso   1.000  Cd
  N7       1.0000 0.20233  0.77850  0.63560  Biso   1.000  N
  N8       1.0000 0.29196  0.94300  0.74820  Biso   1.000  N
  C22      1.0000 0.22820  0.71440  0.60950  Biso   1.000  C
  H22      1.0000 0.26050  0.69370  0.63560  Biso   1.000  H
  N9       1.0000 0.20380  0.68160  0.54200  Biso   1.000  N
  N10      1.0000 0.36480  0.01030  0.80460  Biso   1.000  N
  C23      1.0000 0.18550  0.53560  0.48300  Biso   1.000  C
  C24      1.0000 0.34030  0.93360  0.78930  Biso   1.000  C
  H23      1.0000 0.35530  0.88020  0.80560  Biso   1.000  H
  C25      1.0000 0.48070  0.10450  0.77480  Biso   1.000  C
  H24      1.0000 0.46810  0.15700  0.79130  Biso   1.000  H
  C26      1.0000 0.48110  0.95080  0.77430  Biso   1.000  C
  H25      1.0000 0.46850  0.89830  0.79080  Biso   1.000  H
  C27      1.0000 0.14080  0.53850  0.42300  Biso   1.000  C
  H26      1.0000 0.13410  0.58770  0.39150  Biso   1.000  H
  C28      1.0000 0.22260  0.61080  0.49550  Biso   1.000  C
  H27      1.0000 0.25670  0.59070  0.52230  Biso   1.000  H
  H28      1.0000 0.22790  0.63350  0.44460  Biso   1.000  H
  C29      1.0000 0.46120  0.02860  0.79950  Biso   1.000  C
  C30      1.0000 0.28670  0.03170  0.73740  Biso   1.000  C
  H29      1.0000 0.25700  0.05920  0.71010  Biso   1.000  H
  C31      1.0000 0.33070  0.07230  0.77200  Biso   1.000  C
  H30      1.0000 0.33670  0.13190  0.77330  Biso   1.000  H
  C32      1.0000 0.41760  0.02590  0.84990  Biso   1.000  C
  H31      1.0000 0.42540  0.98030  0.88900  Biso   1.000  H
  H32      1.0000 0.41710  0.08060  0.87780  Biso   1.000  H
  C33      1.0000 0.15750  0.78620  0.58170  Biso   1.000  C
  H33      1.0000 0.13050  0.82610  0.58470  Biso   1.000  H
  C34      1.0000 0.15780  0.72840  0.52410  Biso   1.000  C
  H34      1.0000 0.13180  0.72120  0.48020  Biso   1.000  H
  C35      1.0000 0.10700  0.46770  0.41140  Biso   1.000  C
  H35      1.0000 0.07770  0.47030  0.37190  Biso   1.000  H
  C36      1.0000 0.11530  0.39470  0.45570  Biso   1.000  C
  C37      1.0000 0.07940  0.31590  0.44080  Biso   1.000  C
  H36      1.0000 0.08290  0.28040  0.48800  Biso   1.000  H
  H37      1.0000 0.04270  0.33480  0.42860  Biso   1.000  H
  C38      1.0000 0.15860  0.39280  0.51550  Biso   1.000  C
  H38      1.0000 0.16510  0.34360  0.54700  Biso   1.000  H
  C39      1.0000 0.19180  0.46280  0.52840  Biso   1.000  C
  H39      1.0000 0.21980  0.46060  0.57000  Biso   1.000  H
  N11      1.0000 0.09315  0.26410  0.37500  Biso   1.000  N
  C40      1.0000 0.06100  0.20380  0.33200  Biso   1.000  C
  H40      1.0000 0.02580  0.19110  0.33640  Biso   1.000  H
  C41      1.0000 0.09050  0.16690  0.28230  Biso   1.000  C
  H41      1.0000 0.07870  0.12310  0.24650  Biso   1.000  H
  N12      1.0000 0.14006  0.20290  0.29170  Biso   1.000  N
  C42      1.0000 0.14050  0.25960  0.34890  Biso   1.000  C
  H42      1.0000 0.16990  0.29290  0.36910  Biso   1.000  H
  Cd3      1.0000 0.21980  0.14822  0.25174  Biso   1.000  Cd
  N13      1.0000 0.20233  0.22150  0.13560  Biso   1.000  N
  N14      1.0000 0.29196  0.05700  0.24820  Biso   1.000  N
  C43      1.0000 0.22820  0.28560  0.10950  Biso   1.000  C
  H43      1.0000 0.26050  0.30630  0.13560  Biso   1.000  H
  N15      1.0000 0.20380  0.31840  0.04200  Biso   1.000  N
  N16      1.0000 0.36480  0.98970  0.30460  Biso   1.000  N
  C44      1.0000 0.18550  0.46440  0.98300  Biso   1.000  C
  C45      1.0000 0.34030  0.06640  0.28930  Biso   1.000  C
  H44      1.0000 0.35530  0.11980  0.30560  Biso   1.000  H
  C46      1.0000 0.48070  0.89550  0.27480  Biso   1.000  C
  H45      1.0000 0.46810  0.84300  0.29130  Biso   1.000  H
  C47      1.0000 0.48110  0.04920  0.27430  Biso   1.000  C
  H46      1.0000 0.46850  0.10170  0.29080  Biso   1.000  H
  C48      1.0000 0.14080  0.46150  0.92300  Biso   1.000  C
  H47      1.0000 0.13410  0.41230  0.89150  Biso   1.000  H
  C49      1.0000 0.22260  0.38920  0.99550  Biso   1.000  C
  H48      1.0000 0.25670  0.40930  0.02230  Biso   1.000  H
  H49      1.0000 0.22790  0.36650  0.94460  Biso   1.000  H
  C50      1.0000 0.46120  0.97140  0.29950  Biso   1.000  C
  C51      1.0000 0.28670  0.96830  0.23740  Biso   1.000  C
  H50      1.0000 0.25700  0.94080  0.21010  Biso   1.000  H
  C52      1.0000 0.33070  0.92770  0.27200  Biso   1.000  C
  H51      1.0000 0.33670  0.86810  0.27330  Biso   1.000  H
  C53      1.0000 0.41760  0.97410  0.34990  Biso   1.000  C
  H52      1.0000 0.42540  0.01970  0.38900  Biso   1.000  H
  H53      1.0000 0.41710  0.91940  0.37780  Biso   1.000  H
  C54      1.0000 0.15750  0.21380  0.08170  Biso   1.000  C
  H54      1.0000 0.13050  0.17390  0.08470  Biso   1.000  H
  C55      1.0000 0.15780  0.27160  0.02410  Biso   1.000  C
  H55      1.0000 0.13180  0.27880  0.98020  Biso   1.000  H
  C56      1.0000 0.10700  0.53230  0.91140  Biso   1.000  C
  H56      1.0000 0.07770  0.52970  0.87190  Biso   1.000  H
  C57      1.0000 0.11530  0.60530  0.95570  Biso   1.000  C
  C58      1.0000 0.07940  0.68410  0.94080  Biso   1.000  C
  H57      1.0000 0.08290  0.71960  0.98800  Biso   1.000  H
  H58      1.0000 0.04270  0.66520  0.92860  Biso   1.000  H
  C59      1.0000 0.15860  0.60720  0.01550  Biso   1.000  C
  H59      1.0000 0.16510  0.65640  0.04700  Biso   1.000  H
  C60      1.0000 0.19180  0.53720  0.02840  Biso   1.000  C
  H60      1.0000 0.21980  0.53940  0.07000  Biso   1.000  H
  N17      1.0000 0.09315  0.73590  0.87500  Biso   1.000  N
  C61      1.0000 0.06100  0.79620  0.83200  Biso   1.000  C
  H61      1.0000 0.02580  0.80890  0.83640  Biso   1.000  H
  C62      1.0000 0.09050  0.83310  0.78230  Biso   1.000  C
  H62      1.0000 0.07870  0.87690  0.74650  Biso   1.000  H
  N18      1.0000 0.14006  0.79710  0.79170  Biso   1.000  N
  C63      1.0000 0.14050  0.74040  0.84890  Biso   1.000  C
  H63      1.0000 0.16990  0.70710  0.86910  Biso   1.000  H
  Cd4      1.0000 0.78020  0.14822  0.24826  Biso   1.000  Cd
  N19      1.0000 0.79767  0.22150  0.36440  Biso   1.000  N
  N20      1.0000 0.70804  0.05700  0.25180  Biso   1.000  N
  C64      1.0000 0.77180  0.28560  0.39050  Biso   1.000  C
  H64      1.0000 0.73950  0.30630  0.36440  Biso   1.000  H
  N21      1.0000 0.79620  0.31840  0.45800  Biso   1.000  N
  N22      1.0000 0.63520  0.98970  0.19540  Biso   1.000  N
  C65      1.0000 0.81450  0.46440  0.51700  Biso   1.000  C
  C66      1.0000 0.65970  0.06640  0.21070  Biso   1.000  C
  H65      1.0000 0.64470  0.11980  0.19440  Biso   1.000  H
  C67      1.0000 0.51930  0.89550  0.22520  Biso   1.000  C
  H66      1.0000 0.53190  0.84300  0.20870  Biso   1.000  H
  C68      1.0000 0.51890  0.04920  0.22570  Biso   1.000  C
  H67      1.0000 0.53150  0.10170  0.20920  Biso   1.000  H
  C69      1.0000 0.85920  0.46150  0.57700  Biso   1.000  C
  H68      1.0000 0.86590  0.41230  0.60850  Biso   1.000  H
  C70      1.0000 0.77740  0.38920  0.50450  Biso   1.000  C
  H69      1.0000 0.74330  0.40930  0.47770  Biso   1.000  H
  H70      1.0000 0.77210  0.36650  0.55540  Biso   1.000  H
  C71      1.0000 0.53880  0.97140  0.20050  Biso   1.000  C
  C72      1.0000 0.71330  0.96830  0.26260  Biso   1.000  C
  H71      1.0000 0.74300  0.94080  0.28990  Biso   1.000  H
  C73      1.0000 0.66930  0.92770  0.22800  Biso   1.000  C
  H72      1.0000 0.66330  0.86810  0.22670  Biso   1.000  H
  C74      1.0000 0.58240  0.97410  0.15010  Biso   1.000  C
  H73      1.0000 0.57460  0.01970  0.11100  Biso   1.000  H
  H74      1.0000 0.58290  0.91940  0.12220  Biso   1.000  H
  C75      1.0000 0.84250  0.21380  0.41830  Biso   1.000  C
  H75      1.0000 0.86950  0.17390  0.41530  Biso   1.000  H
  C76      1.0000 0.84220  0.27160  0.47590  Biso   1.000  C
  H76      1.0000 0.86820  0.27880  0.51980  Biso   1.000  H
  C77      1.0000 0.89300  0.53230  0.58860  Biso   1.000  C
  H77      1.0000 0.92230  0.52970  0.62810  Biso   1.000  H
  C78      1.0000 0.88470  0.60530  0.54430  Biso   1.000  C
  C79      1.0000 0.92060  0.68410  0.55920  Biso   1.000  C
  H78      1.0000 0.91710  0.71960  0.51200  Biso   1.000  H
  H79      1.0000 0.95730  0.66520  0.57140  Biso   1.000  H
  C80      1.0000 0.84140  0.60720  0.48450  Biso   1.000  C
  H80      1.0000 0.83490  0.65640  0.45300  Biso   1.000  H
  C81      1.0000 0.80820  0.53720  0.47160  Biso   1.000  C
  H81      1.0000 0.78020  0.53940  0.43000  Biso   1.000  H
  N23      1.0000 0.90685  0.73590  0.62500  Biso   1.000  N
  C82      1.0000 0.93900  0.79620  0.66800  Biso   1.000  C
  H82      1.0000 0.97420  0.80890  0.66360  Biso   1.000  H
  C83      1.0000 0.90950  0.83310  0.71770  Biso   1.000  C
  H83      1.0000 0.92130  0.87690  0.75350  Biso   1.000  H
  N24      1.0000 0.85994  0.79710  0.70830  Biso   1.000  N
  C84      1.0000 0.85950  0.74040  0.65110  Biso   1.000  C
  H84      1.0000 0.83010  0.70710  0.63090  Biso   1.000  H
  Cd5      1.0000 0.28020  0.35178  0.74826  Biso   1.000  Cd
  N25      1.0000 0.29767  0.27850  0.86440  Biso   1.000  N
  N26      1.0000 0.20804  0.44300  0.75180  Biso   1.000  N
  C85      1.0000 0.27180  0.21440  0.89050  Biso   1.000  C
  H85      1.0000 0.23950  0.19370  0.86440  Biso   1.000  H
  N27      1.0000 0.29620  0.18160  0.95800  Biso   1.000  N
  N28      1.0000 0.13520  0.51030  0.69540  Biso   1.000  N
  C86      1.0000 0.31450  0.03560  0.01700  Biso   1.000  C
  C87      1.0000 0.15970  0.43360  0.71070  Biso   1.000  C
  H86      1.0000 0.14470  0.38020  0.69440  Biso   1.000  H
  C88      1.0000 0.01930  0.60450  0.72520  Biso   1.000  C
  H87      1.0000 0.03190  0.65700  0.70870  Biso   1.000  H
  C89      1.0000 0.01890  0.45080  0.72570  Biso   1.000  C
  H88      1.0000 0.03150  0.39830  0.70920  Biso   1.000  H
  C90      1.0000 0.35920  0.03850  0.07700  Biso   1.000  C
  H89      1.0000 0.36590  0.08770  0.10850  Biso   1.000  H
  C91      1.0000 0.27740  0.11080  0.00450  Biso   1.000  C
  H90      1.0000 0.24330  0.09070  0.97770  Biso   1.000  H
  H91      1.0000 0.27210  0.13350  0.05540  Biso   1.000  H
  C92      1.0000 0.03880  0.52860  0.70050  Biso   1.000  C
  C93      1.0000 0.21330  0.53170  0.76260  Biso   1.000  C
  H92      1.0000 0.24300  0.55920  0.78990  Biso   1.000  H
  C94      1.0000 0.16930  0.57230  0.72800  Biso   1.000  C
  H93      1.0000 0.16330  0.63190  0.72670  Biso   1.000  H
  C95      1.0000 0.08240  0.52590  0.65010  Biso   1.000  C
  H94      1.0000 0.07460  0.48030  0.61100  Biso   1.000  H
  H95      1.0000 0.08290  0.58060  0.62220  Biso   1.000  H
  C96      1.0000 0.34250  0.28620  0.91830  Biso   1.000  C
  H96      1.0000 0.36950  0.32610  0.91530  Biso   1.000  H
  C97      1.0000 0.34220  0.22840  0.97590  Biso   1.000  C
  H97      1.0000 0.36820  0.22120  0.01980  Biso   1.000  H
  C98      1.0000 0.39300  0.96770  0.08860  Biso   1.000  C
  H98      1.0000 0.42230  0.97030  0.12810  Biso   1.000  H
  C99      1.0000 0.38470  0.89470  0.04430  Biso   1.000  C
  C100     1.0000 0.42060  0.81590  0.05920  Biso   1.000  C
  H99      1.0000 0.41710  0.78040  0.01200  Biso   1.000  H
  H100     1.0000 0.45730  0.83480  0.07140  Biso   1.000  H
  C101     1.0000 0.34140  0.89280  0.98450  Biso   1.000  C
  H101     1.0000 0.33490  0.84360  0.95300  Biso   1.000  H
  C102     1.0000 0.30820  0.96280  0.97160  Biso   1.000  C
  H102     1.0000 0.28020  0.96060  0.93000  Biso   1.000  H
  N29      1.0000 0.40685  0.76410  0.12500  Biso   1.000  N
  C103     1.0000 0.43900  0.70380  0.16800  Biso   1.000  C
  H103     1.0000 0.47420  0.69110  0.16360  Biso   1.000  H
  C104     1.0000 0.40950  0.66690  0.21770  Biso   1.000  C
  H104     1.0000 0.42130  0.62310  0.25350  Biso   1.000  H
  N30      1.0000 0.35994  0.70290  0.20830  Biso   1.000  N
  C105     1.0000 0.35950  0.75960  0.15110  Biso   1.000  C
  H105     1.0000 0.33010  0.79290  0.13090  Biso   1.000  H
  Cd6      1.0000 0.71980  0.35178  0.75174  Biso   1.000  Cd
  N31      1.0000 0.70233  0.27850  0.63560  Biso   1.000  N
  N32      1.0000 0.79196  0.44300  0.74820  Biso   1.000  N
  C106     1.0000 0.72820  0.21440  0.60950  Biso   1.000  C
  H106     1.0000 0.76050  0.19370  0.63560  Biso   1.000  H
  N33      1.0000 0.70380  0.18160  0.54200  Biso   1.000  N
  N34      1.0000 0.86480  0.51030  0.80460  Biso   1.000  N
  C107     1.0000 0.68550  0.03560  0.48300  Biso   1.000  C
  C108     1.0000 0.84030  0.43360  0.78930  Biso   1.000  C
  H107     1.0000 0.85530  0.38020  0.80560  Biso   1.000  H
  C109     1.0000 0.98070  0.60450  0.77480  Biso   1.000  C
  H108     1.0000 0.96810  0.65700  0.79130  Biso   1.000  H
  C110     1.0000 0.98110  0.45080  0.77430  Biso   1.000  C
  H109     1.0000 0.96850  0.39830  0.79080  Biso   1.000  H
  C111     1.0000 0.64080  0.03850  0.42300  Biso   1.000  C
  H110     1.0000 0.63410  0.08770  0.39150  Biso   1.000  H
  C112     1.0000 0.72260  0.11080  0.49550  Biso   1.000  C
  H111     1.0000 0.75670  0.09070  0.52230  Biso   1.000  H
  H112     1.0000 0.72790  0.13350  0.44460  Biso   1.000  H
  C113     1.0000 0.96120  0.52860  0.79950  Biso   1.000  C
  C114     1.0000 0.78670  0.53170  0.73740  Biso   1.000  C
  H113     1.0000 0.75700  0.55920  0.71010  Biso   1.000  H
  C115     1.0000 0.83070  0.57230  0.77200  Biso   1.000  C
  H114     1.0000 0.83670  0.63190  0.77330  Biso   1.000  H
  C116     1.0000 0.91760  0.52590  0.84990  Biso   1.000  C
  H115     1.0000 0.92540  0.48030  0.88900  Biso   1.000  H
  H116     1.0000 0.91710  0.58060  0.87780  Biso   1.000  H
  C117     1.0000 0.65750  0.28620  0.58170  Biso   1.000  C
  H117     1.0000 0.63050  0.32610  0.58470  Biso   1.000  H
  C118     1.0000 0.65780  0.22840  0.52410  Biso   1.000  C
  H118     1.0000 0.63180  0.22120  0.48020  Biso   1.000  H
  C119     1.0000 0.60700  0.96770  0.41140  Biso   1.000  C
  H119     1.0000 0.57770  0.97030  0.37190  Biso   1.000  H
  C120     1.0000 0.61530  0.89470  0.45570  Biso   1.000  C
  C121     1.0000 0.57940  0.81590  0.44080  Biso   1.000  C
  H120     1.0000 0.58290  0.78040  0.48800  Biso   1.000  H
  H121     1.0000 0.54270  0.83480  0.42860  Biso   1.000  H
  C122     1.0000 0.65860  0.89280  0.51550  Biso   1.000  C
  H122     1.0000 0.66510  0.84360  0.54700  Biso   1.000  H
  C123     1.0000 0.69180  0.96280  0.52840  Biso   1.000  C
  H123     1.0000 0.71980  0.96060  0.57000  Biso   1.000  H
  N35      1.0000 0.59315  0.76410  0.37500  Biso   1.000  N
  C124     1.0000 0.56100  0.70380  0.33200  Biso   1.000  C
  H124     1.0000 0.52580  0.69110  0.33640  Biso   1.000  H
  C125     1.0000 0.59050  0.66690  0.28230  Biso   1.000  C
  H125     1.0000 0.57870  0.62310  0.24650  Biso   1.000  H
  N36      1.0000 0.64006  0.70290  0.29170  Biso   1.000  N
  C126     1.0000 0.64050  0.75960  0.34890  Biso   1.000  C
  H126     1.0000 0.66990  0.79290  0.36910  Biso   1.000  H
  Cd7      1.0000 0.71980  0.64822  0.25174  Biso   1.000  Cd
  N37      1.0000 0.70233  0.72150  0.13560  Biso   1.000  N
  N38      1.0000 0.79196  0.55700  0.24820  Biso   1.000  N
  C127     1.0000 0.72820  0.78560  0.10950  Biso   1.000  C
  H127     1.0000 0.76050  0.80630  0.13560  Biso   1.000  H
  N39      1.0000 0.70380  0.81840  0.04200  Biso   1.000  N
  N40      1.0000 0.86480  0.48970  0.30460  Biso   1.000  N
  C128     1.0000 0.68550  0.96440  0.98300  Biso   1.000  C
  C129     1.0000 0.84030  0.56640  0.28930  Biso   1.000  C
  H128     1.0000 0.85530  0.61980  0.30560  Biso   1.000  H
  C130     1.0000 0.98070  0.39550  0.27480  Biso   1.000  C
  H129     1.0000 0.96810  0.34300  0.29130  Biso   1.000  H
  C131     1.0000 0.98110  0.54920  0.27430  Biso   1.000  C
  H130     1.0000 0.96850  0.60170  0.29080  Biso   1.000  H
  C132     1.0000 0.64080  0.96150  0.92300  Biso   1.000  C
  H131     1.0000 0.63410  0.91230  0.89150  Biso   1.000  H
  C133     1.0000 0.72260  0.88920  0.99550  Biso   1.000  C
  H132     1.0000 0.75670  0.90930  0.02230  Biso   1.000  H
  H133     1.0000 0.72790  0.86650  0.94460  Biso   1.000  H
  C134     1.0000 0.96120  0.47140  0.29950  Biso   1.000  C
  C135     1.0000 0.78670  0.46830  0.23740  Biso   1.000  C
  H134     1.0000 0.75700  0.44080  0.21010  Biso   1.000  H
  C136     1.0000 0.83070  0.42770  0.27200  Biso   1.000  C
  H135     1.0000 0.83670  0.36810  0.27330  Biso   1.000  H
  C137     1.0000 0.91760  0.47410  0.34990  Biso   1.000  C
  H136     1.0000 0.92540  0.51970  0.38900  Biso   1.000  H
  H137     1.0000 0.91710  0.41940  0.37780  Biso   1.000  H
  C138     1.0000 0.65750  0.71380  0.08170  Biso   1.000  C
  H138     1.0000 0.63050  0.67390  0.08470  Biso   1.000  H
  C139     1.0000 0.65780  0.77160  0.02410  Biso   1.000  C
  H139     1.0000 0.63180  0.77880  0.98020  Biso   1.000  H
  C140     1.0000 0.60700  0.03230  0.91140  Biso   1.000  C
  H140     1.0000 0.57770  0.02970  0.87190  Biso   1.000  H
  C141     1.0000 0.61530  0.10530  0.95570  Biso   1.000  C
  C142     1.0000 0.57940  0.18410  0.94080  Biso   1.000  C
  H141     1.0000 0.58290  0.21960  0.98800  Biso   1.000  H
  H142     1.0000 0.54270  0.16520  0.92860  Biso   1.000  H
  C143     1.0000 0.65860  0.10720  0.01550  Biso   1.000  C
  H143     1.0000 0.66510  0.15640  0.04700  Biso   1.000  H
  C144     1.0000 0.69180  0.03720  0.02840  Biso   1.000  C
  H144     1.0000 0.71980  0.03940  0.07000  Biso   1.000  H
  N41      1.0000 0.59315  0.23590  0.87500  Biso   1.000  N
  C145     1.0000 0.56100  0.29620  0.83200  Biso   1.000  C
  H145     1.0000 0.52580  0.30890  0.83640  Biso   1.000  H
  C146     1.0000 0.59050  0.33310  0.78230  Biso   1.000  C
  H146     1.0000 0.57870  0.37690  0.74650  Biso   1.000  H
  N42      1.0000 0.64006  0.29710  0.79170  Biso   1.000  N
  C147     1.0000 0.64050  0.24040  0.84890  Biso   1.000  C
  H147     1.0000 0.66990  0.20710  0.86910  Biso   1.000  H
  Cd8      1.0000 0.28020  0.64822  0.24826  Biso   1.000  Cd
  N43      1.0000 0.29767  0.72150  0.36440  Biso   1.000  N
  N44      1.0000 0.20804  0.55700  0.25180  Biso   1.000  N
  C148     1.0000 0.27180  0.78560  0.39050  Biso   1.000  C
  H148     1.0000 0.23950  0.80630  0.36440  Biso   1.000  H
  N45      1.0000 0.29620  0.81840  0.45800  Biso   1.000  N
  N46      1.0000 0.13520  0.48970  0.19540  Biso   1.000  N
  C149     1.0000 0.31450  0.96440  0.51700  Biso   1.000  C
  C150     1.0000 0.15970  0.56640  0.21070  Biso   1.000  C
  H149     1.0000 0.14470  0.61980  0.19440  Biso   1.000  H
  C151     1.0000 0.01930  0.39550  0.22520  Biso   1.000  C
  H150     1.0000 0.03190  0.34300  0.20870  Biso   1.000  H
  C152     1.0000 0.01890  0.54920  0.22570  Biso   1.000  C
  H151     1.0000 0.03150  0.60170  0.20920  Biso   1.000  H
  C153     1.0000 0.35920  0.96150  0.57700  Biso   1.000  C
  H152     1.0000 0.36590  0.91230  0.60850  Biso   1.000  H
  C154     1.0000 0.27740  0.88920  0.50450  Biso   1.000  C
  H153     1.0000 0.24330  0.90930  0.47770  Biso   1.000  H
  H154     1.0000 0.27210  0.86650  0.55540  Biso   1.000  H
  C155     1.0000 0.03880  0.47140  0.20050  Biso   1.000  C
  C156     1.0000 0.21330  0.46830  0.26260  Biso   1.000  C
  H155     1.0000 0.24300  0.44080  0.28990  Biso   1.000  H
  C157     1.0000 0.16930  0.42770  0.22800  Biso   1.000  C
  H156     1.0000 0.16330  0.36810  0.22670  Biso   1.000  H
  C158     1.0000 0.08240  0.47410  0.15010  Biso   1.000  C
  H157     1.0000 0.07460  0.51970  0.11100  Biso   1.000  H
  H158     1.0000 0.08290  0.41940  0.12220  Biso   1.000  H
  C159     1.0000 0.34250  0.71380  0.41830  Biso   1.000  C
  H159     1.0000 0.36950  0.67390  0.41530  Biso   1.000  H
  C160     1.0000 0.34220  0.77160  0.47590  Biso   1.000  C
  H160     1.0000 0.36820  0.77880  0.51980  Biso   1.000  H
  C161     1.0000 0.39300  0.03230  0.58860  Biso   1.000  C
  H161     1.0000 0.42230  0.02970  0.62810  Biso   1.000  H
  C162     1.0000 0.38470  0.10530  0.54430  Biso   1.000  C
  C163     1.0000 0.42060  0.18410  0.55920  Biso   1.000  C
  H162     1.0000 0.41710  0.21960  0.51200  Biso   1.000  H
  H163     1.0000 0.45730  0.16520  0.57140  Biso   1.000  H
  C164     1.0000 0.34140  0.10720  0.48450  Biso   1.000  C
  H164     1.0000 0.33490  0.15640  0.45300  Biso   1.000  H
  C165     1.0000 0.30820  0.03720  0.47160  Biso   1.000  C
  H165     1.0000 0.28020  0.03940  0.43000  Biso   1.000  H
  N47      1.0000 0.40685  0.23590  0.62500  Biso   1.000  N
  C166     1.0000 0.43900  0.29620  0.66800  Biso   1.000  C
  H166     1.0000 0.47420  0.30890  0.66360  Biso   1.000  H
  C167     1.0000 0.40950  0.33310  0.71770  Biso   1.000  C
  H167     1.0000 0.42130  0.37690  0.75350  Biso   1.000  H
  N48      1.0000 0.35994  0.29710  0.70830  Biso   1.000  N
  C168     1.0000 0.35950  0.24040  0.65110  Biso   1.000  C
  H168     1.0000 0.33010  0.20710  0.63090  Biso   1.000  H
