data_image0
_cell_length_a       25.471
_cell_length_b       15.3878
_cell_length_c       17.1507
_cell_angle_alpha    90
_cell_angle_beta     98.828
_cell_angle_gamma    90

_symmetry_space_group_name_H-M    "P 1"
_symmetry_int_tables_number       1

loop_
  _symmetry_equiv_pos_as_xyz
  'x, y, z'

loop_
  _atom_site_label
  _atom_site_occupancy
  _atom_site_fract_x
  _atom_site_fract_y
  _atom_site_fract_z
  _atom_site_thermal_displace_type
  _atom_site_B_iso_or_equiv
  _atom_site_type_symbol
  Cd1      1.0000 0.78019  0.85178  0.74826  Biso   1.000  Cd
  N1       1.0000 0.79766  0.77850  0.86440  Biso   1.000  N
  N2       1.0000 0.70798  0.94290  0.75180  Biso   1.000  N
  C1       1.0000 0.77170  0.71430  0.89040  Biso   1.000  C
  H1       1.0000 0.73940  0.69360  0.86440  Biso   1.000  H
  N3       1.0000 0.79620  0.68170  0.95800  Biso   1.000  N
  N4       1.0000 0.63518  0.01030  0.69530  Biso   1.000  N
  C2       1.0000 0.81440  0.53560  0.01710  Biso   1.000  C
  C3       1.0000 0.65976  0.93350  0.71080  Biso   1.000  C
  H2       1.0000 0.64470  0.88020  0.69460  Biso   1.000  H
  C4       1.0000 0.51930  0.10460  0.72510  Biso   1.000  C
  H3       1.0000 0.53190  0.15710  0.70870  Biso   1.000  H
  C5       1.0000 0.51890  0.95080  0.72570  Biso   1.000  C
  H4       1.0000 0.53150  0.89820  0.70920  Biso   1.000  H
  C6       1.0000 0.85920  0.53840  0.07700  Biso   1.000  C
  H5       1.0000 0.86600  0.58760  0.10840  Biso   1.000  H
  C7       1.0000 0.77750  0.61090  0.00450  Biso   1.000  C
  H6       1.0000 0.74330  0.59070  0.97780  Biso   1.000  H
  H7       1.0000 0.77220  0.63360  0.05550  Biso   1.000  H
  C8       1.0000 0.53870  0.02850  0.70040  Biso   1.000  C
  C9       1.0000 0.71330  0.03170  0.76270  Biso   1.000  C
  H8       1.0000 0.74310  0.05920  0.79000  Biso   1.000  H
  C10      1.0000 0.66940  0.07240  0.72810  Biso   1.000  C
  H9       1.0000 0.66340  0.13210  0.72680  Biso   1.000  H
  C11      1.0000 0.58240  0.02570  0.64990  Biso   1.000  C
  H10      1.0000 0.57460  0.98000  0.61090  Biso   1.000  H
  H11      1.0000 0.58290  0.08040  0.62190  Biso   1.000  H
  C12      1.0000 0.84260  0.78620  0.91830  Biso   1.000  C
  H12      1.0000 0.86970  0.82610  0.91530  Biso   1.000  H
  C13      1.0000 0.84220  0.72830  0.97600  Biso   1.000  C
  H13      1.0000 0.86810  0.72090  0.02000  Biso   1.000  H
  C14      1.0000 0.89300  0.46760  0.08860  Biso   1.000  C
  H14      1.0000 0.92240  0.47020  0.12810  Biso   1.000  H
  C15      1.0000 0.88470  0.39470  0.04430  Biso   1.000  C
  C16      1.0000 0.92060  0.31590  0.05920  Biso   1.000  C
  H15      1.0000 0.91710  0.28030  0.01200  Biso   1.000  H
  H16      1.0000 0.95730  0.33470  0.07130  Biso   1.000  H
  C17      1.0000 0.84130  0.39290  0.98450  Biso   1.000  C
  H17      1.0000 0.83480  0.34370  0.95300  Biso   1.000  H
  C18      1.0000 0.80820  0.46290  0.97160  Biso   1.000  C
  H18      1.0000 0.78020  0.46070  0.93000  Biso   1.000  H
  N5       1.0000 0.90686  0.26410  0.12490  Biso   1.000  N
  C19      1.0000 0.93910  0.20380  0.16790  Biso   1.000  C
  H19      1.0000 0.97420  0.19100  0.16340  Biso   1.000  H
  C20      1.0000 0.90970  0.16680  0.21780  Biso   1.000  C
  H20      1.0000 0.92150  0.12310  0.25360  Biso   1.000  H
  N6       1.0000 0.85988  0.20290  0.20830  Biso   1.000  N
  C21      1.0000 0.85951  0.25970  0.15110  Biso   1.000  C
  H21      1.0000 0.83010  0.29300  0.13090  Biso   1.000  H
  Cd2      1.0000 0.21981  0.85178  0.75174  Biso   1.000  Cd
  N7       1.0000 0.20234  0.77850  0.63560  Biso   1.000  N
  N8       1.0000 0.29202  0.94290  0.74820  Biso   1.000  N
  C22      1.0000 0.22830  0.71430  0.60960  Biso   1.000  C
  H22      1.0000 0.26060  0.69360  0.63560  Biso   1.000  H
  N9       1.0000 0.20380  0.68170  0.54200  Biso   1.000  N
  N10      1.0000 0.36482  0.01030  0.80470  Biso   1.000  N
  C23      1.0000 0.18560  0.53560  0.48290  Biso   1.000  C
  C24      1.0000 0.34024  0.93350  0.78920  Biso   1.000  C
  H23      1.0000 0.35530  0.88020  0.80540  Biso   1.000  H
  C25      1.0000 0.48070  0.10460  0.77490  Biso   1.000  C
  H24      1.0000 0.46810  0.15710  0.79130  Biso   1.000  H
  C26      1.0000 0.48110  0.95080  0.77430  Biso   1.000  C
  H25      1.0000 0.46850  0.89820  0.79080  Biso   1.000  H
  C27      1.0000 0.14080  0.53840  0.42300  Biso   1.000  C
  H26      1.0000 0.13400  0.58760  0.39160  Biso   1.000  H
  C28      1.0000 0.22250  0.61090  0.49550  Biso   1.000  C
  H27      1.0000 0.25670  0.59070  0.52220  Biso   1.000  H
  H28      1.0000 0.22780  0.63360  0.44450  Biso   1.000  H
  C29      1.0000 0.46130  0.02850  0.79960  Biso   1.000  C
  C30      1.0000 0.28670  0.03170  0.73730  Biso   1.000  C
  H29      1.0000 0.25690  0.05920  0.71000  Biso   1.000  H
  C31      1.0000 0.33060  0.07240  0.77190  Biso   1.000  C
  H30      1.0000 0.33660  0.13210  0.77320  Biso   1.000  H
  C32      1.0000 0.41760  0.02570  0.85010  Biso   1.000  C
  H31      1.0000 0.42540  0.98000  0.88910  Biso   1.000  H
  H32      1.0000 0.41710  0.08040  0.87810  Biso   1.000  H
  C33      1.0000 0.15740  0.78620  0.58170  Biso   1.000  C
  H33      1.0000 0.13030  0.82610  0.58470  Biso   1.000  H
  C34      1.0000 0.15780  0.72830  0.52400  Biso   1.000  C
  H34      1.0000 0.13190  0.72090  0.48000  Biso   1.000  H
  C35      1.0000 0.10700  0.46760  0.41140  Biso   1.000  C
  H35      1.0000 0.07760  0.47020  0.37190  Biso   1.000  H
  C36      1.0000 0.11530  0.39470  0.45570  Biso   1.000  C
  C37      1.0000 0.07940  0.31590  0.44080  Biso   1.000  C
  H36      1.0000 0.08290  0.28030  0.48800  Biso   1.000  H
  H37      1.0000 0.04270  0.33470  0.42870  Biso   1.000  H
  C38      1.0000 0.15870  0.39290  0.51550  Biso   1.000  C
  H38      1.0000 0.16520  0.34370  0.54700  Biso   1.000  H
  C39      1.0000 0.19180  0.46290  0.52840  Biso   1.000  C
  H39      1.0000 0.21980  0.46070  0.57000  Biso   1.000  H
  N11      1.0000 0.09314  0.26410  0.37510  Biso   1.000  N
  C40      1.0000 0.06090  0.20380  0.33210  Biso   1.000  C
  H40      1.0000 0.02580  0.19100  0.33660  Biso   1.000  H
  C41      1.0000 0.09030  0.16680  0.28220  Biso   1.000  C
  H41      1.0000 0.07850  0.12310  0.24640  Biso   1.000  H
  N12      1.0000 0.14012  0.20290  0.29170  Biso   1.000  N
  C42      1.0000 0.14049  0.25970  0.34890  Biso   1.000  C
  H42      1.0000 0.16990  0.29300  0.36910  Biso   1.000  H
  Cd3      1.0000 0.21981  0.14822  0.25174  Biso   1.000  Cd
  N13      1.0000 0.20234  0.22150  0.13560  Biso   1.000  N
  N14      1.0000 0.29202  0.05710  0.24820  Biso   1.000  N
  C43      1.0000 0.22830  0.28570  0.10960  Biso   1.000  C
  H43      1.0000 0.26060  0.30640  0.13560  Biso   1.000  H
  N15      1.0000 0.20380  0.31830  0.04200  Biso   1.000  N
  N16      1.0000 0.36482  0.98970  0.30470  Biso   1.000  N
  C44      1.0000 0.18560  0.46440  0.98290  Biso   1.000  C
  C45      1.0000 0.34024  0.06650  0.28920  Biso   1.000  C
  H44      1.0000 0.35530  0.11980  0.30540  Biso   1.000  H
  C46      1.0000 0.48070  0.89540  0.27490  Biso   1.000  C
  H45      1.0000 0.46810  0.84290  0.29130  Biso   1.000  H
  C47      1.0000 0.48110  0.04920  0.27430  Biso   1.000  C
  H46      1.0000 0.46850  0.10180  0.29080  Biso   1.000  H
  C48      1.0000 0.14080  0.46160  0.92300  Biso   1.000  C
  H47      1.0000 0.13400  0.41240  0.89160  Biso   1.000  H
  C49      1.0000 0.22250  0.38910  0.99550  Biso   1.000  C
  H48      1.0000 0.25670  0.40930  0.02220  Biso   1.000  H
  H49      1.0000 0.22780  0.36640  0.94450  Biso   1.000  H
  C50      1.0000 0.46130  0.97150  0.29960  Biso   1.000  C
  C51      1.0000 0.28670  0.96830  0.23730  Biso   1.000  C
  H50      1.0000 0.25690  0.94080  0.21000  Biso   1.000  H
  C52      1.0000 0.33060  0.92760  0.27190  Biso   1.000  C
  H51      1.0000 0.33660  0.86790  0.27320  Biso   1.000  H
  C53      1.0000 0.41760  0.97430  0.35010  Biso   1.000  C
  H52      1.0000 0.42540  0.02000  0.38910  Biso   1.000  H
  H53      1.0000 0.41710  0.91960  0.37810  Biso   1.000  H
  C54      1.0000 0.15740  0.21380  0.08170  Biso   1.000  C
  H54      1.0000 0.13030  0.17390  0.08470  Biso   1.000  H
  C55      1.0000 0.15780  0.27170  0.02400  Biso   1.000  C
  H55      1.0000 0.13190  0.27910  0.98000  Biso   1.000  H
  C56      1.0000 0.10700  0.53240  0.91140  Biso   1.000  C
  H56      1.0000 0.07760  0.52980  0.87190  Biso   1.000  H
  C57      1.0000 0.11530  0.60530  0.95570  Biso   1.000  C
  C58      1.0000 0.07940  0.68410  0.94080  Biso   1.000  C
  H57      1.0000 0.08290  0.71970  0.98800  Biso   1.000  H
  H58      1.0000 0.04270  0.66530  0.92870  Biso   1.000  H
  C59      1.0000 0.15870  0.60710  0.01550  Biso   1.000  C
  H59      1.0000 0.16520  0.65630  0.04700  Biso   1.000  H
  C60      1.0000 0.19180  0.53710  0.02840  Biso   1.000  C
  H60      1.0000 0.21980  0.53930  0.07000  Biso   1.000  H
  N17      1.0000 0.09314  0.73590  0.87510  Biso   1.000  N
  C61      1.0000 0.06090  0.79620  0.83210  Biso   1.000  C
  H61      1.0000 0.02580  0.80900  0.83660  Biso   1.000  H
  C62      1.0000 0.09030  0.83320  0.78220  Biso   1.000  C
  H62      1.0000 0.07850  0.87690  0.74640  Biso   1.000  H
  N18      1.0000 0.14012  0.79710  0.79170  Biso   1.000  N
  C63      1.0000 0.14049  0.74030  0.84890  Biso   1.000  C
  H63      1.0000 0.16990  0.70700  0.86910  Biso   1.000  H
  Cd4      1.0000 0.78019  0.14822  0.24826  Biso   1.000  Cd
  N19      1.0000 0.79766  0.22150  0.36440  Biso   1.000  N
  N20      1.0000 0.70798  0.05710  0.25180  Biso   1.000  N
  C64      1.0000 0.77170  0.28570  0.39040  Biso   1.000  C
  H64      1.0000 0.73940  0.30640  0.36440  Biso   1.000  H
  N21      1.0000 0.79620  0.31830  0.45800  Biso   1.000  N
  N22      1.0000 0.63518  0.98970  0.19530  Biso   1.000  N
  C65      1.0000 0.81440  0.46440  0.51710  Biso   1.000  C
  C66      1.0000 0.65976  0.06650  0.21080  Biso   1.000  C
  H65      1.0000 0.64470  0.11980  0.19460  Biso   1.000  H
  C67      1.0000 0.51930  0.89540  0.22510  Biso   1.000  C
  H66      1.0000 0.53190  0.84290  0.20870  Biso   1.000  H
  C68      1.0000 0.51890  0.04920  0.22570  Biso   1.000  C
  H67      1.0000 0.53150  0.10180  0.20920  Biso   1.000  H
  C69      1.0000 0.85920  0.46160  0.57700  Biso   1.000  C
  H68      1.0000 0.86600  0.41240  0.60840  Biso   1.000  H
  C70      1.0000 0.77750  0.38910  0.50450  Biso   1.000  C
  H69      1.0000 0.74330  0.40930  0.47780  Biso   1.000  H
  H70      1.0000 0.77220  0.36640  0.55550  Biso   1.000  H
  C71      1.0000 0.53870  0.97150  0.20040  Biso   1.000  C
  C72      1.0000 0.71330  0.96830  0.26270  Biso   1.000  C
  H71      1.0000 0.74310  0.94080  0.29000  Biso   1.000  H
  C73      1.0000 0.66940  0.92760  0.22810  Biso   1.000  C
  H72      1.0000 0.66340  0.86790  0.22680  Biso   1.000  H
  C74      1.0000 0.58240  0.97430  0.14990  Biso   1.000  C
  H73      1.0000 0.57460  0.02000  0.11090  Biso   1.000  H
  H74      1.0000 0.58290  0.91960  0.12190  Biso   1.000  H
  C75      1.0000 0.84260  0.21380  0.41830  Biso   1.000  C
  H75      1.0000 0.86970  0.17390  0.41530  Biso   1.000  H
  C76      1.0000 0.84220  0.27170  0.47600  Biso   1.000  C
  H76      1.0000 0.86810  0.27910  0.52000  Biso   1.000  H
  C77      1.0000 0.89300  0.53240  0.58860  Biso   1.000  C
  H77      1.0000 0.92240  0.52980  0.62810  Biso   1.000  H
  C78      1.0000 0.88470  0.60530  0.54430  Biso   1.000  C
  C79      1.0000 0.92060  0.68410  0.55920  Biso   1.000  C
  H78      1.0000 0.91710  0.71970  0.51200  Biso   1.000  H
  H79      1.0000 0.95730  0.66530  0.57130  Biso   1.000  H
  C80      1.0000 0.84130  0.60710  0.48450  Biso   1.000  C
  H80      1.0000 0.83480  0.65630  0.45300  Biso   1.000  H
  C81      1.0000 0.80820  0.53710  0.47160  Biso   1.000  C
  H81      1.0000 0.78020  0.53930  0.43000  Biso   1.000  H
  N23      1.0000 0.90686  0.73590  0.62490  Biso   1.000  N
  C82      1.0000 0.93910  0.79620  0.66790  Biso   1.000  C
  H82      1.0000 0.97420  0.80900  0.66340  Biso   1.000  H
  C83      1.0000 0.90970  0.83320  0.71780  Biso   1.000  C
  H83      1.0000 0.92150  0.87690  0.75360  Biso   1.000  H
  N24      1.0000 0.85988  0.79710  0.70830  Biso   1.000  N
  C84      1.0000 0.85951  0.74030  0.65110  Biso   1.000  C
  H84      1.0000 0.83010  0.70700  0.63090  Biso   1.000  H
  Cd5      1.0000 0.28019  0.35178  0.74826  Biso   1.000  Cd
  N25      1.0000 0.29766  0.27850  0.86440  Biso   1.000  N
  N26      1.0000 0.20798  0.44290  0.75180  Biso   1.000  N
  C85      1.0000 0.27170  0.21430  0.89040  Biso   1.000  C
  H85      1.0000 0.23940  0.19360  0.86440  Biso   1.000  H
  N27      1.0000 0.29620  0.18170  0.95800  Biso   1.000  N
  N28      1.0000 0.13518  0.51030  0.69530  Biso   1.000  N
  C86      1.0000 0.31440  0.03560  0.01710  Biso   1.000  C
  C87      1.0000 0.15976  0.43350  0.71080  Biso   1.000  C
  H86      1.0000 0.14470  0.38020  0.69460  Biso   1.000  H
  C88      1.0000 0.01930  0.60460  0.72510  Biso   1.000  C
  H87      1.0000 0.03190  0.65710  0.70870  Biso   1.000  H
  C89      1.0000 0.01890  0.45080  0.72570  Biso   1.000  C
  H88      1.0000 0.03150  0.39820  0.70920  Biso   1.000  H
  C90      1.0000 0.35920  0.03840  0.07700  Biso   1.000  C
  H89      1.0000 0.36600  0.08760  0.10840  Biso   1.000  H
  C91      1.0000 0.27750  0.11090  0.00450  Biso   1.000  C
  H90      1.0000 0.24330  0.09070  0.97780  Biso   1.000  H
  H91      1.0000 0.27220  0.13360  0.05550  Biso   1.000  H
  C92      1.0000 0.03870  0.52850  0.70040  Biso   1.000  C
  C93      1.0000 0.21330  0.53170  0.76270  Biso   1.000  C
  H92      1.0000 0.24310  0.55920  0.79000  Biso   1.000  H
  C94      1.0000 0.16940  0.57240  0.72810  Biso   1.000  C
  H93      1.0000 0.16340  0.63210  0.72680  Biso   1.000  H
  C95      1.0000 0.08240  0.52570  0.64990  Biso   1.000  C
  H94      1.0000 0.07460  0.48000  0.61090  Biso   1.000  H
  H95      1.0000 0.08290  0.58040  0.62190  Biso   1.000  H
  C96      1.0000 0.34260  0.28620  0.91830  Biso   1.000  C
  H96      1.0000 0.36970  0.32610  0.91530  Biso   1.000  H
  C97      1.0000 0.34220  0.22830  0.97600  Biso   1.000  C
  H97      1.0000 0.36810  0.22090  0.02000  Biso   1.000  H
  C98      1.0000 0.39300  0.96760  0.08860  Biso   1.000  C
  H98      1.0000 0.42240  0.97020  0.12810  Biso   1.000  H
  C99      1.0000 0.38470  0.89470  0.04430  Biso   1.000  C
  C100     1.0000 0.42060  0.81590  0.05920  Biso   1.000  C
  H99      1.0000 0.41710  0.78030  0.01200  Biso   1.000  H
  H100     1.0000 0.45730  0.83470  0.07130  Biso   1.000  H
  C101     1.0000 0.34130  0.89290  0.98450  Biso   1.000  C
  H101     1.0000 0.33480  0.84370  0.95300  Biso   1.000  H
  C102     1.0000 0.30820  0.96290  0.97160  Biso   1.000  C
  H102     1.0000 0.28020  0.96070  0.93000  Biso   1.000  H
  N29      1.0000 0.40686  0.76410  0.12490  Biso   1.000  N
  C103     1.0000 0.43910  0.70380  0.16790  Biso   1.000  C
  H103     1.0000 0.47420  0.69100  0.16340  Biso   1.000  H
  C104     1.0000 0.40970  0.66680  0.21780  Biso   1.000  C
  H104     1.0000 0.42150  0.62310  0.25360  Biso   1.000  H
  N30      1.0000 0.35988  0.70290  0.20830  Biso   1.000  N
  C105     1.0000 0.35951  0.75970  0.15110  Biso   1.000  C
  H105     1.0000 0.33010  0.79300  0.13090  Biso   1.000  H
  Cd6      1.0000 0.71981  0.35178  0.75174  Biso   1.000  Cd
  N31      1.0000 0.70234  0.27850  0.63560  Biso   1.000  N
  N32      1.0000 0.79202  0.44290  0.74820  Biso   1.000  N
  C106     1.0000 0.72830  0.21430  0.60960  Biso   1.000  C
  H106     1.0000 0.76060  0.19360  0.63560  Biso   1.000  H
  N33      1.0000 0.70380  0.18170  0.54200  Biso   1.000  N
  N34      1.0000 0.86482  0.51030  0.80470  Biso   1.000  N
  C107     1.0000 0.68560  0.03560  0.48290  Biso   1.000  C
  C108     1.0000 0.84024  0.43350  0.78920  Biso   1.000  C
  H107     1.0000 0.85530  0.38020  0.80540  Biso   1.000  H
  C109     1.0000 0.98070  0.60460  0.77490  Biso   1.000  C
  H108     1.0000 0.96810  0.65710  0.79130  Biso   1.000  H
  C110     1.0000 0.98110  0.45080  0.77430  Biso   1.000  C
  H109     1.0000 0.96850  0.39820  0.79080  Biso   1.000  H
  C111     1.0000 0.64080  0.03840  0.42300  Biso   1.000  C
  H110     1.0000 0.63400  0.08760  0.39160  Biso   1.000  H
  C112     1.0000 0.72250  0.11090  0.49550  Biso   1.000  C
  H111     1.0000 0.75670  0.09070  0.52220  Biso   1.000  H
  H112     1.0000 0.72780  0.13360  0.44450  Biso   1.000  H
  C113     1.0000 0.96130  0.52850  0.79960  Biso   1.000  C
  C114     1.0000 0.78670  0.53170  0.73730  Biso   1.000  C
  H113     1.0000 0.75690  0.55920  0.71000  Biso   1.000  H
  C115     1.0000 0.83060  0.57240  0.77190  Biso   1.000  C
  H114     1.0000 0.83660  0.63210  0.77320  Biso   1.000  H
  C116     1.0000 0.91760  0.52570  0.85010  Biso   1.000  C
  H115     1.0000 0.92540  0.48000  0.88910  Biso   1.000  H
  H116     1.0000 0.91710  0.58040  0.87810  Biso   1.000  H
  C117     1.0000 0.65740  0.28620  0.58170  Biso   1.000  C
  H117     1.0000 0.63030  0.32610  0.58470  Biso   1.000  H
  C118     1.0000 0.65780  0.22830  0.52400  Biso   1.000  C
  H118     1.0000 0.63190  0.22090  0.48000  Biso   1.000  H
  C119     1.0000 0.60700  0.96760  0.41140  Biso   1.000  C
  H119     1.0000 0.57760  0.97020  0.37190  Biso   1.000  H
  C120     1.0000 0.61530  0.89470  0.45570  Biso   1.000  C
  C121     1.0000 0.57940  0.81590  0.44080  Biso   1.000  C
  H120     1.0000 0.58290  0.78030  0.48800  Biso   1.000  H
  H121     1.0000 0.54270  0.83470  0.42870  Biso   1.000  H
  C122     1.0000 0.65870  0.89290  0.51550  Biso   1.000  C
  H122     1.0000 0.66520  0.84370  0.54700  Biso   1.000  H
  C123     1.0000 0.69180  0.96290  0.52840  Biso   1.000  C
  H123     1.0000 0.71980  0.96070  0.57000  Biso   1.000  H
  N35      1.0000 0.59314  0.76410  0.37510  Biso   1.000  N
  C124     1.0000 0.56090  0.70380  0.33210  Biso   1.000  C
  H124     1.0000 0.52580  0.69100  0.33660  Biso   1.000  H
  C125     1.0000 0.59030  0.66680  0.28220  Biso   1.000  C
  H125     1.0000 0.57850  0.62310  0.24640  Biso   1.000  H
  N36      1.0000 0.64012  0.70290  0.29170  Biso   1.000  N
  C126     1.0000 0.64049  0.75970  0.34890  Biso   1.000  C
  H126     1.0000 0.66990  0.79300  0.36910  Biso   1.000  H
  Cd7      1.0000 0.71981  0.64822  0.25174  Biso   1.000  Cd
  N37      1.0000 0.70234  0.72150  0.13560  Biso   1.000  N
  N38      1.0000 0.79202  0.55710  0.24820  Biso   1.000  N
  C127     1.0000 0.72830  0.78570  0.10960  Biso   1.000  C
  H127     1.0000 0.76060  0.80640  0.13560  Biso   1.000  H
  N39      1.0000 0.70380  0.81830  0.04200  Biso   1.000  N
  N40      1.0000 0.86482  0.48970  0.30470  Biso   1.000  N
  C128     1.0000 0.68560  0.96440  0.98290  Biso   1.000  C
  C129     1.0000 0.84024  0.56650  0.28920  Biso   1.000  C
  H128     1.0000 0.85530  0.61980  0.30540  Biso   1.000  H
  C130     1.0000 0.98070  0.39540  0.27490  Biso   1.000  C
  H129     1.0000 0.96810  0.34290  0.29130  Biso   1.000  H
  C131     1.0000 0.98110  0.54920  0.27430  Biso   1.000  C
  H130     1.0000 0.96850  0.60180  0.29080  Biso   1.000  H
  C132     1.0000 0.64080  0.96160  0.92300  Biso   1.000  C
  H131     1.0000 0.63400  0.91240  0.89160  Biso   1.000  H
  C133     1.0000 0.72250  0.88910  0.99550  Biso   1.000  C
  H132     1.0000 0.75670  0.90930  0.02220  Biso   1.000  H
  H133     1.0000 0.72780  0.86640  0.94450  Biso   1.000  H
  C134     1.0000 0.96130  0.47150  0.29960  Biso   1.000  C
  C135     1.0000 0.78670  0.46830  0.23730  Biso   1.000  C
  H134     1.0000 0.75690  0.44080  0.21000  Biso   1.000  H
  C136     1.0000 0.83060  0.42760  0.27190  Biso   1.000  C
  H135     1.0000 0.83660  0.36790  0.27320  Biso   1.000  H
  C137     1.0000 0.91760  0.47430  0.35010  Biso   1.000  C
  H136     1.0000 0.92540  0.52000  0.38910  Biso   1.000  H
  H137     1.0000 0.91710  0.41960  0.37810  Biso   1.000  H
  C138     1.0000 0.65740  0.71380  0.08170  Biso   1.000  C
  H138     1.0000 0.63030  0.67390  0.08470  Biso   1.000  H
  C139     1.0000 0.65780  0.77170  0.02400  Biso   1.000  C
  H139     1.0000 0.63190  0.77910  0.98000  Biso   1.000  H
  C140     1.0000 0.60700  0.03240  0.91140  Biso   1.000  C
  H140     1.0000 0.57760  0.02980  0.87190  Biso   1.000  H
  C141     1.0000 0.61530  0.10530  0.95570  Biso   1.000  C
  C142     1.0000 0.57940  0.18410  0.94080  Biso   1.000  C
  H141     1.0000 0.58290  0.21970  0.98800  Biso   1.000  H
  H142     1.0000 0.54270  0.16530  0.92870  Biso   1.000  H
  C143     1.0000 0.65870  0.10710  0.01550  Biso   1.000  C
  H143     1.0000 0.66520  0.15630  0.04700  Biso   1.000  H
  C144     1.0000 0.69180  0.03710  0.02840  Biso   1.000  C
  H144     1.0000 0.71980  0.03930  0.07000  Biso   1.000  H
  N41      1.0000 0.59314  0.23590  0.87510  Biso   1.000  N
  C145     1.0000 0.56090  0.29620  0.83210  Biso   1.000  C
  H145     1.0000 0.52580  0.30900  0.83660  Biso   1.000  H
  C146     1.0000 0.59030  0.33320  0.78220  Biso   1.000  C
  H146     1.0000 0.57850  0.37690  0.74640  Biso   1.000  H
  N42      1.0000 0.64012  0.29710  0.79170  Biso   1.000  N
  C147     1.0000 0.64049  0.24030  0.84890  Biso   1.000  C
  H147     1.0000 0.66990  0.20700  0.86910  Biso   1.000  H
  Cd8      1.0000 0.28019  0.64822  0.24826  Biso   1.000  Cd
  N43      1.0000 0.29766  0.72150  0.36440  Biso   1.000  N
  N44      1.0000 0.20798  0.55710  0.25180  Biso   1.000  N
  C148     1.0000 0.27170  0.78570  0.39040  Biso   1.000  C
  H148     1.0000 0.23940  0.80640  0.36440  Biso   1.000  H
  N45      1.0000 0.29620  0.81830  0.45800  Biso   1.000  N
  N46      1.0000 0.13518  0.48970  0.19530  Biso   1.000  N
  C149     1.0000 0.31440  0.96440  0.51710  Biso   1.000  C
  C150     1.0000 0.15976  0.56650  0.21080  Biso   1.000  C
  H149     1.0000 0.14470  0.61980  0.19460  Biso   1.000  H
  C151     1.0000 0.01930  0.39540  0.22510  Biso   1.000  C
  H150     1.0000 0.03190  0.34290  0.20870  Biso   1.000  H
  C152     1.0000 0.01890  0.54920  0.22570  Biso   1.000  C
  H151     1.0000 0.03150  0.60180  0.20920  Biso   1.000  H
  C153     1.0000 0.35920  0.96160  0.57700  Biso   1.000  C
  H152     1.0000 0.36600  0.91240  0.60840  Biso   1.000  H
  C154     1.0000 0.27750  0.88910  0.50450  Biso   1.000  C
  H153     1.0000 0.24330  0.90930  0.47780  Biso   1.000  H
  H154     1.0000 0.27220  0.86640  0.55550  Biso   1.000  H
  C155     1.0000 0.03870  0.47150  0.20040  Biso   1.000  C
  C156     1.0000 0.21330  0.46830  0.26270  Biso   1.000  C
  H155     1.0000 0.24310  0.44080  0.29000  Biso   1.000  H
  C157     1.0000 0.16940  0.42760  0.22810  Biso   1.000  C
  H156     1.0000 0.16340  0.36790  0.22680  Biso   1.000  H
  C158     1.0000 0.08240  0.47430  0.14990  Biso   1.000  C
  H157     1.0000 0.07460  0.52000  0.11090  Biso   1.000  H
  H158     1.0000 0.08290  0.41960  0.12190  Biso   1.000  H
  C159     1.0000 0.34260  0.71380  0.41830  Biso   1.000  C
  H159     1.0000 0.36970  0.67390  0.41530  Biso   1.000  H
  C160     1.0000 0.34220  0.77170  0.47600  Biso   1.000  C
  H160     1.0000 0.36810  0.77910  0.52000  Biso   1.000  H
  C161     1.0000 0.39300  0.03240  0.58860  Biso   1.000  C
  H161     1.0000 0.42240  0.02980  0.62810  Biso   1.000  H
  C162     1.0000 0.38470  0.10530  0.54430  Biso   1.000  C
  C163     1.0000 0.42060  0.18410  0.55920  Biso   1.000  C
  H162     1.0000 0.41710  0.21970  0.51200  Biso   1.000  H
  H163     1.0000 0.45730  0.16530  0.57130  Biso   1.000  H
  C164     1.0000 0.34130  0.10710  0.48450  Biso   1.000  C
  H164     1.0000 0.33480  0.15630  0.45300  Biso   1.000  H
  C165     1.0000 0.30820  0.03710  0.47160  Biso   1.000  C
  H165     1.0000 0.28020  0.03930  0.43000  Biso   1.000  H
  N47      1.0000 0.40686  0.23590  0.62490  Biso   1.000  N
  C166     1.0000 0.43910  0.29620  0.66790  Biso   1.000  C
  H166     1.0000 0.47420  0.30900  0.66340  Biso   1.000  H
  C167     1.0000 0.40970  0.33320  0.71780  Biso   1.000  C
  H167     1.0000 0.42150  0.37690  0.75360  Biso   1.000  H
  N48      1.0000 0.35988  0.29710  0.70830  Biso   1.000  N
  C168     1.0000 0.35951  0.24030  0.65110  Biso   1.000  C
  H168     1.0000 0.33010  0.20700  0.63090  Biso   1.000  H
