data_image0
_cell_length_a       55.7522
_cell_length_b       7.5557
_cell_length_c       14.1327
_cell_angle_alpha    90
_cell_angle_beta     100.012
_cell_angle_gamma    90

_symmetry_space_group_name_H-M    "P 1"
_symmetry_int_tables_number       1

loop_
  _symmetry_equiv_pos_as_xyz
  'x, y, z'

loop_
  _atom_site_label
  _atom_site_occupancy
  _atom_site_fract_x
  _atom_site_fract_y
  _atom_site_fract_z
  _atom_site_thermal_displace_type
  _atom_site_B_iso_or_equiv
  _atom_site_type_symbol
  Zn1      1.0000 0.35994  0.37125  0.02508  Biso   1.000  Zn
  Zn2      1.0000 0.38744  0.54638  0.84340  Biso   1.000  Zn
  O1       1.0000 0.39387  0.25990  0.00910  Biso   1.000  O
  O2       1.0000 0.37554  0.59450  0.08198  Biso   1.000  O
  O3       1.0000 0.34961  0.80340  0.61631  Biso   1.000  O
  O4       1.0000 0.39694  0.29310  0.85466  Biso   1.000  O
  O5       1.0000 0.34279  0.23050  0.90793  Biso   1.000  O
  O6       1.0000 0.39441  0.68140  0.96412  Biso   1.000  O
  O7       1.0000 0.35129  0.48320  0.84480  Biso   1.000  O
  O8       1.0000 0.37731  0.70020  0.73102  Biso   1.000  O
  N1       1.0000 0.42429  0.59770  0.81980  Biso   1.000  N
  C1       1.0000 0.31240  0.11260  0.73930  Biso   1.000  C
  C2       1.0000 0.32237  0.94470  0.75160  Biso   1.000  C
  C3       1.0000 0.39769  0.86340  0.10210  Biso   1.000  C
  H1       1.0000 0.38780  0.96350  0.07580  Biso   1.000  H
  H2       1.0000 0.39550  0.84800  0.16810  Biso   1.000  H
  C4       1.0000 0.42398  0.90520  0.10110  Biso   1.000  C
  C5       1.0000 0.38856  0.69840  0.04540  Biso   1.000  C
  C6       1.0000 0.34158  0.33160  0.83810  Biso   1.000  C
  C7       1.0000 0.35918  0.79510  0.70240  Biso   1.000  C
  C8       1.0000 0.43213  0.98980  0.02460  Biso   1.000  C
  C9       1.0000 0.32804  0.27520  0.74130  Biso   1.000  C
  H3       1.0000 0.31780  0.37270  0.71430  Biso   1.000  H
  H4       1.0000 0.33990  0.25490  0.69950  Biso   1.000  H
  C10      1.0000 0.40111  0.21330  0.93440  Biso   1.000  C
  C11      1.0000 0.34958  0.91130  0.77370  Biso   1.000  C
  H5       1.0000 0.35790  0.02430  0.77670  Biso   1.000  H
  H6       1.0000 0.35350  0.85720  0.83680  Biso   1.000  H
  C12      1.0000 0.44105  0.85290  0.18040  Biso   1.000  C
  H7       1.0000 0.43570  0.79630  0.23120  Biso   1.000  H
  C13      1.0000 0.41583  0.04360  0.93370  Biso   1.000  C
  H8       1.0000 0.40450  0.94750  0.91450  Biso   1.000  H
  H9       1.0000 0.42580  0.05530  0.88420  Biso   1.000  H
  C14      1.0000 0.30690  0.79980  0.74600  Biso   1.000  C
  H10      1.0000 0.31360  0.68680  0.75410  Biso   1.000  H
  N2       1.0000 0.49818  0.61080  0.79060  Biso   1.000  N
  C15      1.0000 0.28714  0.13040  0.72330  Biso   1.000  C
  H11      1.0000 0.28030  0.24280  0.71610  Biso   1.000  H
  C16      1.0000 0.42962  0.62740  0.73320  Biso   1.000  C
  H12      1.0000 0.41700  0.64420  0.68150  Biso   1.000  H
  C17      1.0000 0.47216  0.61010  0.79420  Biso   1.000  C
  C18      1.0000 0.45359  0.63410  0.71780  Biso   1.000  C
  H13      1.0000 0.45700  0.65450  0.65660  Biso   1.000  H
  C19      1.0000 0.28200  0.81900  0.72880  Biso   1.000  C
  H14      1.0000 0.27190  0.72010  0.72450  Biso   1.000  H
  C20      1.0000 0.44271  0.57780  0.89320  Biso   1.000  C
  H15      1.0000 0.43900  0.55850  0.95410  Biso   1.000  H
  C21      1.0000 0.45719  0.01820  0.03240  Biso   1.000  C
  H16      1.0000 0.46290  0.07480  0.98240  Biso   1.000  H
  C22      1.0000 0.27220  0.98500  0.71810  Biso   1.000  C
  H17      1.0000 0.25540  0.99950  0.70730  Biso   1.000  H
  C23      1.0000 0.46543  0.88230  0.18580  Biso   1.000  C
  H18      1.0000 0.47640  0.84580  0.23960  Biso   1.000  H
  C24      1.0000 0.46670  0.58420  0.88370  Biso   1.000  C
  H19      1.0000 0.47900  0.57120  0.93690  Biso   1.000  H
  C25      1.0000 0.47367  0.96530  0.11180  Biso   1.000  C
  H20      1.0000 0.49020  0.98600  0.11490  Biso   1.000  H
  Zn3      1.0000 0.64006  0.37125  0.47492  Biso   1.000  Zn
  Zn4      1.0000 0.61256  0.54638  0.65660  Biso   1.000  Zn
  O9       1.0000 0.60613  0.25990  0.49090  Biso   1.000  O
  O10      1.0000 0.62446  0.59450  0.41802  Biso   1.000  O
  O11      1.0000 0.65039  0.80340  0.88369  Biso   1.000  O
  O12      1.0000 0.60306  0.29310  0.64534  Biso   1.000  O
  O13      1.0000 0.65721  0.23050  0.59207  Biso   1.000  O
  O14      1.0000 0.60559  0.68140  0.53588  Biso   1.000  O
  O15      1.0000 0.64871  0.48320  0.65520  Biso   1.000  O
  O16      1.0000 0.62269  0.70020  0.76898  Biso   1.000  O
  N3       1.0000 0.57571  0.59770  0.68020  Biso   1.000  N
  C26      1.0000 0.68760  0.11260  0.76070  Biso   1.000  C
  C27      1.0000 0.67763  0.94470  0.74840  Biso   1.000  C
  C28      1.0000 0.60231  0.86340  0.39790  Biso   1.000  C
  H21      1.0000 0.61220  0.96350  0.42420  Biso   1.000  H
  H22      1.0000 0.60450  0.84800  0.33190  Biso   1.000  H
  C29      1.0000 0.57602  0.90520  0.39890  Biso   1.000  C
  C30      1.0000 0.61144  0.69840  0.45460  Biso   1.000  C
  C31      1.0000 0.65842  0.33160  0.66190  Biso   1.000  C
  C32      1.0000 0.64082  0.79510  0.79760  Biso   1.000  C
  C33      1.0000 0.56787  0.98980  0.47540  Biso   1.000  C
  C34      1.0000 0.67196  0.27520  0.75870  Biso   1.000  C
  H23      1.0000 0.68220  0.37270  0.78570  Biso   1.000  H
  H24      1.0000 0.66010  0.25490  0.80050  Biso   1.000  H
  C35      1.0000 0.59889  0.21330  0.56560  Biso   1.000  C
  C36      1.0000 0.65042  0.91130  0.72630  Biso   1.000  C
  H25      1.0000 0.64210  0.02430  0.72330  Biso   1.000  H
  H26      1.0000 0.64650  0.85720  0.66320  Biso   1.000  H
  C37      1.0000 0.55895  0.85290  0.31960  Biso   1.000  C
  H27      1.0000 0.56430  0.79630  0.26880  Biso   1.000  H
  C38      1.0000 0.58417  0.04360  0.56630  Biso   1.000  C
  H28      1.0000 0.59550  0.94750  0.58550  Biso   1.000  H
  H29      1.0000 0.57420  0.05530  0.61580  Biso   1.000  H
  C39      1.0000 0.69310  0.79980  0.75400  Biso   1.000  C
  H30      1.0000 0.68640  0.68680  0.74590  Biso   1.000  H
  N4       1.0000 0.50182  0.61080  0.70940  Biso   1.000  N
  C40      1.0000 0.71286  0.13040  0.77670  Biso   1.000  C
  H31      1.0000 0.71970  0.24280  0.78390  Biso   1.000  H
  C41      1.0000 0.57038  0.62740  0.76680  Biso   1.000  C
  H32      1.0000 0.58300  0.64420  0.81850  Biso   1.000  H
  C42      1.0000 0.52784  0.61010  0.70580  Biso   1.000  C
  C43      1.0000 0.54641  0.63410  0.78220  Biso   1.000  C
  H33      1.0000 0.54300  0.65450  0.84340  Biso   1.000  H
  C44      1.0000 0.71800  0.81900  0.77120  Biso   1.000  C
  H34      1.0000 0.72810  0.72010  0.77550  Biso   1.000  H
  C45      1.0000 0.55729  0.57780  0.60680  Biso   1.000  C
  H35      1.0000 0.56100  0.55850  0.54590  Biso   1.000  H
  C46      1.0000 0.54281  0.01820  0.46760  Biso   1.000  C
  H36      1.0000 0.53710  0.07480  0.51760  Biso   1.000  H
  C47      1.0000 0.72780  0.98500  0.78190  Biso   1.000  C
  H37      1.0000 0.74460  0.99950  0.79270  Biso   1.000  H
  C48      1.0000 0.53457  0.88230  0.31420  Biso   1.000  C
  H38      1.0000 0.52360  0.84580  0.26040  Biso   1.000  H
  C49      1.0000 0.53330  0.58420  0.61630  Biso   1.000  C
  H39      1.0000 0.52100  0.57120  0.56310  Biso   1.000  H
  C50      1.0000 0.52633  0.96530  0.38820  Biso   1.000  C
  H40      1.0000 0.50980  0.98600  0.38510  Biso   1.000  H
  Zn5      1.0000 0.64006  0.62875  0.97492  Biso   1.000  Zn
  Zn6      1.0000 0.61256  0.45362  0.15660  Biso   1.000  Zn
  O17      1.0000 0.60613  0.74010  0.99090  Biso   1.000  O
  O18      1.0000 0.62446  0.40550  0.91802  Biso   1.000  O
  O19      1.0000 0.65039  0.19660  0.38369  Biso   1.000  O
  O20      1.0000 0.60306  0.70690  0.14534  Biso   1.000  O
  O21      1.0000 0.65721  0.76950  0.09207  Biso   1.000  O
  O22      1.0000 0.60559  0.31860  0.03588  Biso   1.000  O
  O23      1.0000 0.64871  0.51680  0.15520  Biso   1.000  O
  O24      1.0000 0.62269  0.29980  0.26898  Biso   1.000  O
  N5       1.0000 0.57571  0.40230  0.18020  Biso   1.000  N
  C51      1.0000 0.68760  0.88740  0.26070  Biso   1.000  C
  C52      1.0000 0.67763  0.05530  0.24840  Biso   1.000  C
  C53      1.0000 0.60231  0.13660  0.89790  Biso   1.000  C
  H41      1.0000 0.61220  0.03650  0.92420  Biso   1.000  H
  H42      1.0000 0.60450  0.15200  0.83190  Biso   1.000  H
  C54      1.0000 0.57602  0.09480  0.89890  Biso   1.000  C
  C55      1.0000 0.61144  0.30160  0.95460  Biso   1.000  C
  C56      1.0000 0.65842  0.66840  0.16190  Biso   1.000  C
  C57      1.0000 0.64082  0.20490  0.29760  Biso   1.000  C
  C58      1.0000 0.56787  0.01020  0.97540  Biso   1.000  C
  C59      1.0000 0.67196  0.72480  0.25870  Biso   1.000  C
  H43      1.0000 0.68220  0.62730  0.28570  Biso   1.000  H
  H44      1.0000 0.66010  0.74510  0.30050  Biso   1.000  H
  C60      1.0000 0.59889  0.78670  0.06560  Biso   1.000  C
  C61      1.0000 0.65042  0.08870  0.22630  Biso   1.000  C
  H45      1.0000 0.64210  0.97570  0.22330  Biso   1.000  H
  H46      1.0000 0.64650  0.14280  0.16320  Biso   1.000  H
  C62      1.0000 0.55895  0.14710  0.81960  Biso   1.000  C
  H47      1.0000 0.56430  0.20370  0.76880  Biso   1.000  H
  C63      1.0000 0.58417  0.95640  0.06630  Biso   1.000  C
  H48      1.0000 0.59550  0.05250  0.08550  Biso   1.000  H
  H49      1.0000 0.57420  0.94470  0.11580  Biso   1.000  H
  C64      1.0000 0.69310  0.20020  0.25400  Biso   1.000  C
  H50      1.0000 0.68640  0.31320  0.24590  Biso   1.000  H
  N6       1.0000 0.50182  0.38920  0.20940  Biso   1.000  N
  C65      1.0000 0.71286  0.86960  0.27670  Biso   1.000  C
  H51      1.0000 0.71970  0.75720  0.28390  Biso   1.000  H
  C66      1.0000 0.57038  0.37260  0.26680  Biso   1.000  C
  H52      1.0000 0.58300  0.35580  0.31850  Biso   1.000  H
  C67      1.0000 0.52784  0.38990  0.20580  Biso   1.000  C
  C68      1.0000 0.54641  0.36590  0.28220  Biso   1.000  C
  H53      1.0000 0.54300  0.34550  0.34340  Biso   1.000  H
  C69      1.0000 0.71800  0.18100  0.27120  Biso   1.000  C
  H54      1.0000 0.72810  0.27990  0.27550  Biso   1.000  H
  C70      1.0000 0.55729  0.42220  0.10680  Biso   1.000  C
  H55      1.0000 0.56100  0.44150  0.04590  Biso   1.000  H
  C71      1.0000 0.54281  0.98180  0.96760  Biso   1.000  C
  H56      1.0000 0.53710  0.92520  0.01760  Biso   1.000  H
  C72      1.0000 0.72780  0.01500  0.28190  Biso   1.000  C
  H57      1.0000 0.74460  0.00050  0.29270  Biso   1.000  H
  C73      1.0000 0.53457  0.11770  0.81420  Biso   1.000  C
  H58      1.0000 0.52360  0.15420  0.76040  Biso   1.000  H
  C74      1.0000 0.53330  0.41580  0.11630  Biso   1.000  C
  H59      1.0000 0.52100  0.42880  0.06310  Biso   1.000  H
  C75      1.0000 0.52633  0.03470  0.88820  Biso   1.000  C
  H60      1.0000 0.50980  0.01400  0.88510  Biso   1.000  H
  Zn7      1.0000 0.35994  0.62875  0.52508  Biso   1.000  Zn
  Zn8      1.0000 0.38744  0.45362  0.34340  Biso   1.000  Zn
  O25      1.0000 0.39387  0.74010  0.50910  Biso   1.000  O
  O26      1.0000 0.37554  0.40550  0.58198  Biso   1.000  O
  O27      1.0000 0.34961  0.19660  0.11631  Biso   1.000  O
  O28      1.0000 0.39694  0.70690  0.35466  Biso   1.000  O
  O29      1.0000 0.34279  0.76950  0.40793  Biso   1.000  O
  O30      1.0000 0.39441  0.31860  0.46412  Biso   1.000  O
  O31      1.0000 0.35129  0.51680  0.34480  Biso   1.000  O
  O32      1.0000 0.37731  0.29980  0.23102  Biso   1.000  O
  N7       1.0000 0.42429  0.40230  0.31980  Biso   1.000  N
  C76      1.0000 0.31240  0.88740  0.23930  Biso   1.000  C
  C77      1.0000 0.32237  0.05530  0.25160  Biso   1.000  C
  C78      1.0000 0.39769  0.13660  0.60210  Biso   1.000  C
  H61      1.0000 0.38780  0.03650  0.57580  Biso   1.000  H
  H62      1.0000 0.39550  0.15200  0.66810  Biso   1.000  H
  C79      1.0000 0.42398  0.09480  0.60110  Biso   1.000  C
  C80      1.0000 0.38856  0.30160  0.54540  Biso   1.000  C
  C81      1.0000 0.34158  0.66840  0.33810  Biso   1.000  C
  C82      1.0000 0.35918  0.20490  0.20240  Biso   1.000  C
  C83      1.0000 0.43213  0.01020  0.52460  Biso   1.000  C
  C84      1.0000 0.32804  0.72480  0.24130  Biso   1.000  C
  H63      1.0000 0.31780  0.62730  0.21430  Biso   1.000  H
  H64      1.0000 0.33990  0.74510  0.19950  Biso   1.000  H
  C85      1.0000 0.40111  0.78670  0.43440  Biso   1.000  C
  C86      1.0000 0.34958  0.08870  0.27370  Biso   1.000  C
  H65      1.0000 0.35790  0.97570  0.27670  Biso   1.000  H
  H66      1.0000 0.35350  0.14280  0.33680  Biso   1.000  H
  C87      1.0000 0.44105  0.14710  0.68040  Biso   1.000  C
  H67      1.0000 0.43570  0.20370  0.73120  Biso   1.000  H
  C88      1.0000 0.41583  0.95640  0.43370  Biso   1.000  C
  H68      1.0000 0.40450  0.05250  0.41450  Biso   1.000  H
  H69      1.0000 0.42580  0.94470  0.38420  Biso   1.000  H
  C89      1.0000 0.30690  0.20020  0.24600  Biso   1.000  C
  H70      1.0000 0.31360  0.31320  0.25410  Biso   1.000  H
  N8       1.0000 0.49818  0.38920  0.29060  Biso   1.000  N
  C90      1.0000 0.28714  0.86960  0.22330  Biso   1.000  C
  H71      1.0000 0.28030  0.75720  0.21610  Biso   1.000  H
  C91      1.0000 0.42962  0.37260  0.23320  Biso   1.000  C
  H72      1.0000 0.41700  0.35580  0.18150  Biso   1.000  H
  C92      1.0000 0.47216  0.38990  0.29420  Biso   1.000  C
  C93      1.0000 0.45359  0.36590  0.21780  Biso   1.000  C
  H73      1.0000 0.45700  0.34550  0.15660  Biso   1.000  H
  C94      1.0000 0.28200  0.18100  0.22880  Biso   1.000  C
  H74      1.0000 0.27190  0.27990  0.22450  Biso   1.000  H
  C95      1.0000 0.44271  0.42220  0.39320  Biso   1.000  C
  H75      1.0000 0.43900  0.44150  0.45410  Biso   1.000  H
  C96      1.0000 0.45719  0.98180  0.53240  Biso   1.000  C
  H76      1.0000 0.46290  0.92520  0.48240  Biso   1.000  H
  C97      1.0000 0.27220  0.01500  0.21810  Biso   1.000  C
  H77      1.0000 0.25540  0.00050  0.20730  Biso   1.000  H
  C98      1.0000 0.46543  0.11770  0.68580  Biso   1.000  C
  H78      1.0000 0.47640  0.15420  0.73960  Biso   1.000  H
  C99      1.0000 0.46670  0.41580  0.38370  Biso   1.000  C
  H79      1.0000 0.47900  0.42880  0.43690  Biso   1.000  H
  C100     1.0000 0.47367  0.03470  0.61180  Biso   1.000  C
  H80      1.0000 0.49020  0.01400  0.61490  Biso   1.000  H
  Zn9      1.0000 0.85994  0.87125  0.02508  Biso   1.000  Zn
  Zn10     1.0000 0.88744  0.04638  0.84340  Biso   1.000  Zn
  O33      1.0000 0.89387  0.75990  0.00910  Biso   1.000  O
  O34      1.0000 0.87554  0.09450  0.08198  Biso   1.000  O
  O35      1.0000 0.84961  0.30340  0.61631  Biso   1.000  O
  O36      1.0000 0.89694  0.79310  0.85466  Biso   1.000  O
  O37      1.0000 0.84279  0.73050  0.90793  Biso   1.000  O
  O38      1.0000 0.89441  0.18140  0.96412  Biso   1.000  O
  O39      1.0000 0.85129  0.98320  0.84480  Biso   1.000  O
  O40      1.0000 0.87731  0.20020  0.73102  Biso   1.000  O
  N9       1.0000 0.92429  0.09770  0.81980  Biso   1.000  N
  C101     1.0000 0.81240  0.61260  0.73930  Biso   1.000  C
  C102     1.0000 0.82237  0.44470  0.75160  Biso   1.000  C
  C103     1.0000 0.89769  0.36340  0.10210  Biso   1.000  C
  H81      1.0000 0.88780  0.46350  0.07580  Biso   1.000  H
  H82      1.0000 0.89550  0.34800  0.16810  Biso   1.000  H
  C104     1.0000 0.92398  0.40520  0.10110  Biso   1.000  C
  C105     1.0000 0.88856  0.19840  0.04540  Biso   1.000  C
  C106     1.0000 0.84158  0.83160  0.83810  Biso   1.000  C
  C107     1.0000 0.85918  0.29510  0.70240  Biso   1.000  C
  C108     1.0000 0.93213  0.48980  0.02460  Biso   1.000  C
  C109     1.0000 0.82804  0.77520  0.74130  Biso   1.000  C
  H83      1.0000 0.81780  0.87270  0.71430  Biso   1.000  H
  H84      1.0000 0.83990  0.75490  0.69950  Biso   1.000  H
  C110     1.0000 0.90111  0.71330  0.93440  Biso   1.000  C
  C111     1.0000 0.84958  0.41130  0.77370  Biso   1.000  C
  H85      1.0000 0.85790  0.52430  0.77670  Biso   1.000  H
  H86      1.0000 0.85350  0.35720  0.83680  Biso   1.000  H
  C112     1.0000 0.94105  0.35290  0.18040  Biso   1.000  C
  H87      1.0000 0.93570  0.29630  0.23120  Biso   1.000  H
  C113     1.0000 0.91583  0.54360  0.93370  Biso   1.000  C
  H88      1.0000 0.90450  0.44750  0.91450  Biso   1.000  H
  H89      1.0000 0.92580  0.55530  0.88420  Biso   1.000  H
  C114     1.0000 0.80690  0.29980  0.74600  Biso   1.000  C
  H90      1.0000 0.81360  0.18680  0.75410  Biso   1.000  H
  N10      1.0000 0.99818  0.11080  0.79060  Biso   1.000  N
  C115     1.0000 0.78714  0.63040  0.72330  Biso   1.000  C
  H91      1.0000 0.78030  0.74280  0.71610  Biso   1.000  H
  C116     1.0000 0.92962  0.12740  0.73320  Biso   1.000  C
  H92      1.0000 0.91700  0.14420  0.68150  Biso   1.000  H
  C117     1.0000 0.97216  0.11010  0.79420  Biso   1.000  C
  C118     1.0000 0.95359  0.13410  0.71780  Biso   1.000  C
  H93      1.0000 0.95700  0.15450  0.65660  Biso   1.000  H
  C119     1.0000 0.78200  0.31900  0.72880  Biso   1.000  C
  H94      1.0000 0.77190  0.22010  0.72450  Biso   1.000  H
  C120     1.0000 0.94271  0.07780  0.89320  Biso   1.000  C
  H95      1.0000 0.93900  0.05850  0.95410  Biso   1.000  H
  C121     1.0000 0.95719  0.51820  0.03240  Biso   1.000  C
  H96      1.0000 0.96290  0.57480  0.98240  Biso   1.000  H
  C122     1.0000 0.77220  0.48500  0.71810  Biso   1.000  C
  H97      1.0000 0.75540  0.49950  0.70730  Biso   1.000  H
  C123     1.0000 0.96543  0.38230  0.18580  Biso   1.000  C
  H98      1.0000 0.97640  0.34580  0.23960  Biso   1.000  H
  C124     1.0000 0.96670  0.08420  0.88370  Biso   1.000  C
  H99      1.0000 0.97900  0.07120  0.93690  Biso   1.000  H
  C125     1.0000 0.97367  0.46530  0.11180  Biso   1.000  C
  H100     1.0000 0.99020  0.48600  0.11490  Biso   1.000  H
  Zn11     1.0000 0.14006  0.87125  0.47492  Biso   1.000  Zn
  Zn12     1.0000 0.11256  0.04638  0.65660  Biso   1.000  Zn
  O41      1.0000 0.10613  0.75990  0.49090  Biso   1.000  O
  O42      1.0000 0.12446  0.09450  0.41802  Biso   1.000  O
  O43      1.0000 0.15039  0.30340  0.88369  Biso   1.000  O
  O44      1.0000 0.10306  0.79310  0.64534  Biso   1.000  O
  O45      1.0000 0.15721  0.73050  0.59207  Biso   1.000  O
  O46      1.0000 0.10559  0.18140  0.53588  Biso   1.000  O
  O47      1.0000 0.14871  0.98320  0.65520  Biso   1.000  O
  O48      1.0000 0.12269  0.20020  0.76898  Biso   1.000  O
  N11      1.0000 0.07571  0.09770  0.68020  Biso   1.000  N
  C126     1.0000 0.18760  0.61260  0.76070  Biso   1.000  C
  C127     1.0000 0.17763  0.44470  0.74840  Biso   1.000  C
  C128     1.0000 0.10231  0.36340  0.39790  Biso   1.000  C
  H101     1.0000 0.11220  0.46350  0.42420  Biso   1.000  H
  H102     1.0000 0.10450  0.34800  0.33190  Biso   1.000  H
  C129     1.0000 0.07602  0.40520  0.39890  Biso   1.000  C
  C130     1.0000 0.11144  0.19840  0.45460  Biso   1.000  C
  C131     1.0000 0.15842  0.83160  0.66190  Biso   1.000  C
  C132     1.0000 0.14082  0.29510  0.79760  Biso   1.000  C
  C133     1.0000 0.06787  0.48980  0.47540  Biso   1.000  C
  C134     1.0000 0.17196  0.77520  0.75870  Biso   1.000  C
  H103     1.0000 0.18220  0.87270  0.78570  Biso   1.000  H
  H104     1.0000 0.16010  0.75490  0.80050  Biso   1.000  H
  C135     1.0000 0.09889  0.71330  0.56560  Biso   1.000  C
  C136     1.0000 0.15042  0.41130  0.72630  Biso   1.000  C
  H105     1.0000 0.14210  0.52430  0.72330  Biso   1.000  H
  H106     1.0000 0.14650  0.35720  0.66320  Biso   1.000  H
  C137     1.0000 0.05895  0.35290  0.31960  Biso   1.000  C
  H107     1.0000 0.06430  0.29630  0.26880  Biso   1.000  H
  C138     1.0000 0.08417  0.54360  0.56630  Biso   1.000  C
  H108     1.0000 0.09550  0.44750  0.58550  Biso   1.000  H
  H109     1.0000 0.07420  0.55530  0.61580  Biso   1.000  H
  C139     1.0000 0.19310  0.29980  0.75400  Biso   1.000  C
  H110     1.0000 0.18640  0.18680  0.74590  Biso   1.000  H
  N12      1.0000 0.00182  0.11080  0.70940  Biso   1.000  N
  C140     1.0000 0.21286  0.63040  0.77670  Biso   1.000  C
  H111     1.0000 0.21970  0.74280  0.78390  Biso   1.000  H
  C141     1.0000 0.07038  0.12740  0.76680  Biso   1.000  C
  H112     1.0000 0.08300  0.14420  0.81850  Biso   1.000  H
  C142     1.0000 0.02784  0.11010  0.70580  Biso   1.000  C
  C143     1.0000 0.04641  0.13410  0.78220  Biso   1.000  C
  H113     1.0000 0.04300  0.15450  0.84340  Biso   1.000  H
  C144     1.0000 0.21800  0.31900  0.77120  Biso   1.000  C
  H114     1.0000 0.22810  0.22010  0.77550  Biso   1.000  H
  C145     1.0000 0.05729  0.07780  0.60680  Biso   1.000  C
  H115     1.0000 0.06100  0.05850  0.54590  Biso   1.000  H
  C146     1.0000 0.04281  0.51820  0.46760  Biso   1.000  C
  H116     1.0000 0.03710  0.57480  0.51760  Biso   1.000  H
  C147     1.0000 0.22780  0.48500  0.78190  Biso   1.000  C
  H117     1.0000 0.24460  0.49950  0.79270  Biso   1.000  H
  C148     1.0000 0.03457  0.38230  0.31420  Biso   1.000  C
  H118     1.0000 0.02360  0.34580  0.26040  Biso   1.000  H
  C149     1.0000 0.03330  0.08420  0.61630  Biso   1.000  C
  H119     1.0000 0.02100  0.07120  0.56310  Biso   1.000  H
  C150     1.0000 0.02633  0.46530  0.38820  Biso   1.000  C
  H120     1.0000 0.00980  0.48600  0.38510  Biso   1.000  H
  Zn13     1.0000 0.14006  0.12875  0.97492  Biso   1.000  Zn
  Zn14     1.0000 0.11256  0.95362  0.15660  Biso   1.000  Zn
  O49      1.0000 0.10613  0.24010  0.99090  Biso   1.000  O
  O50      1.0000 0.12446  0.90550  0.91802  Biso   1.000  O
  O51      1.0000 0.15039  0.69660  0.38369  Biso   1.000  O
  O52      1.0000 0.10306  0.20690  0.14534  Biso   1.000  O
  O53      1.0000 0.15721  0.26950  0.09207  Biso   1.000  O
  O54      1.0000 0.10559  0.81860  0.03588  Biso   1.000  O
  O55      1.0000 0.14871  0.01680  0.15520  Biso   1.000  O
  O56      1.0000 0.12269  0.79980  0.26898  Biso   1.000  O
  N13      1.0000 0.07571  0.90230  0.18020  Biso   1.000  N
  C151     1.0000 0.18760  0.38740  0.26070  Biso   1.000  C
  C152     1.0000 0.17763  0.55530  0.24840  Biso   1.000  C
  C153     1.0000 0.10231  0.63660  0.89790  Biso   1.000  C
  H121     1.0000 0.11220  0.53650  0.92420  Biso   1.000  H
  H122     1.0000 0.10450  0.65200  0.83190  Biso   1.000  H
  C154     1.0000 0.07602  0.59480  0.89890  Biso   1.000  C
  C155     1.0000 0.11144  0.80160  0.95460  Biso   1.000  C
  C156     1.0000 0.15842  0.16840  0.16190  Biso   1.000  C
  C157     1.0000 0.14082  0.70490  0.29760  Biso   1.000  C
  C158     1.0000 0.06787  0.51020  0.97540  Biso   1.000  C
  C159     1.0000 0.17196  0.22480  0.25870  Biso   1.000  C
  H123     1.0000 0.18220  0.12730  0.28570  Biso   1.000  H
  H124     1.0000 0.16010  0.24510  0.30050  Biso   1.000  H
  C160     1.0000 0.09889  0.28670  0.06560  Biso   1.000  C
  C161     1.0000 0.15042  0.58870  0.22630  Biso   1.000  C
  H125     1.0000 0.14210  0.47570  0.22330  Biso   1.000  H
  H126     1.0000 0.14650  0.64280  0.16320  Biso   1.000  H
  C162     1.0000 0.05895  0.64710  0.81960  Biso   1.000  C
  H127     1.0000 0.06430  0.70370  0.76880  Biso   1.000  H
  C163     1.0000 0.08417  0.45640  0.06630  Biso   1.000  C
  H128     1.0000 0.09550  0.55250  0.08550  Biso   1.000  H
  H129     1.0000 0.07420  0.44470  0.11580  Biso   1.000  H
  C164     1.0000 0.19310  0.70020  0.25400  Biso   1.000  C
  H130     1.0000 0.18640  0.81320  0.24590  Biso   1.000  H
  N14      1.0000 0.00182  0.88920  0.20940  Biso   1.000  N
  C165     1.0000 0.21286  0.36960  0.27670  Biso   1.000  C
  H131     1.0000 0.21970  0.25720  0.28390  Biso   1.000  H
  C166     1.0000 0.07038  0.87260  0.26680  Biso   1.000  C
  H132     1.0000 0.08300  0.85580  0.31850  Biso   1.000  H
  C167     1.0000 0.02784  0.88990  0.20580  Biso   1.000  C
  C168     1.0000 0.04641  0.86590  0.28220  Biso   1.000  C
  H133     1.0000 0.04300  0.84550  0.34340  Biso   1.000  H
  C169     1.0000 0.21800  0.68100  0.27120  Biso   1.000  C
  H134     1.0000 0.22810  0.77990  0.27550  Biso   1.000  H
  C170     1.0000 0.05729  0.92220  0.10680  Biso   1.000  C
  H135     1.0000 0.06100  0.94150  0.04590  Biso   1.000  H
  C171     1.0000 0.04281  0.48180  0.96760  Biso   1.000  C
  H136     1.0000 0.03710  0.42520  0.01760  Biso   1.000  H
  C172     1.0000 0.22780  0.51500  0.28190  Biso   1.000  C
  H137     1.0000 0.24460  0.50050  0.29270  Biso   1.000  H
  C173     1.0000 0.03457  0.61770  0.81420  Biso   1.000  C
  H138     1.0000 0.02360  0.65420  0.76040  Biso   1.000  H
  C174     1.0000 0.03330  0.91580  0.11630  Biso   1.000  C
  H139     1.0000 0.02100  0.92880  0.06310  Biso   1.000  H
  C175     1.0000 0.02633  0.53470  0.88820  Biso   1.000  C
  H140     1.0000 0.00980  0.51400  0.88510  Biso   1.000  H
  Zn15     1.0000 0.85994  0.12875  0.52508  Biso   1.000  Zn
  Zn16     1.0000 0.88744  0.95362  0.34340  Biso   1.000  Zn
  O57      1.0000 0.89387  0.24010  0.50910  Biso   1.000  O
  O58      1.0000 0.87554  0.90550  0.58198  Biso   1.000  O
  O59      1.0000 0.84961  0.69660  0.11631  Biso   1.000  O
  O60      1.0000 0.89694  0.20690  0.35466  Biso   1.000  O
  O61      1.0000 0.84279  0.26950  0.40793  Biso   1.000  O
  O62      1.0000 0.89441  0.81860  0.46412  Biso   1.000  O
  O63      1.0000 0.85129  0.01680  0.34480  Biso   1.000  O
  O64      1.0000 0.87731  0.79980  0.23102  Biso   1.000  O
  N15      1.0000 0.92429  0.90230  0.31980  Biso   1.000  N
  C176     1.0000 0.81240  0.38740  0.23930  Biso   1.000  C
  C177     1.0000 0.82237  0.55530  0.25160  Biso   1.000  C
  C178     1.0000 0.89769  0.63660  0.60210  Biso   1.000  C
  H141     1.0000 0.88780  0.53650  0.57580  Biso   1.000  H
  H142     1.0000 0.89550  0.65200  0.66810  Biso   1.000  H
  C179     1.0000 0.92398  0.59480  0.60110  Biso   1.000  C
  C180     1.0000 0.88856  0.80160  0.54540  Biso   1.000  C
  C181     1.0000 0.84158  0.16840  0.33810  Biso   1.000  C
  C182     1.0000 0.85918  0.70490  0.20240  Biso   1.000  C
  C183     1.0000 0.93213  0.51020  0.52460  Biso   1.000  C
  C184     1.0000 0.82804  0.22480  0.24130  Biso   1.000  C
  H143     1.0000 0.81780  0.12730  0.21430  Biso   1.000  H
  H144     1.0000 0.83990  0.24510  0.19950  Biso   1.000  H
  C185     1.0000 0.90111  0.28670  0.43440  Biso   1.000  C
  C186     1.0000 0.84958  0.58870  0.27370  Biso   1.000  C
  H145     1.0000 0.85790  0.47570  0.27670  Biso   1.000  H
  H146     1.0000 0.85350  0.64280  0.33680  Biso   1.000  H
  C187     1.0000 0.94105  0.64710  0.68040  Biso   1.000  C
  H147     1.0000 0.93570  0.70370  0.73120  Biso   1.000  H
  C188     1.0000 0.91583  0.45640  0.43370  Biso   1.000  C
  H148     1.0000 0.90450  0.55250  0.41450  Biso   1.000  H
  H149     1.0000 0.92580  0.44470  0.38420  Biso   1.000  H
  C189     1.0000 0.80690  0.70020  0.24600  Biso   1.000  C
  H150     1.0000 0.81360  0.81320  0.25410  Biso   1.000  H
  N16      1.0000 0.99818  0.88920  0.29060  Biso   1.000  N
  C190     1.0000 0.78714  0.36960  0.22330  Biso   1.000  C
  H151     1.0000 0.78030  0.25720  0.21610  Biso   1.000  H
  C191     1.0000 0.92962  0.87260  0.23320  Biso   1.000  C
  H152     1.0000 0.91700  0.85580  0.18150  Biso   1.000  H
  C192     1.0000 0.97216  0.88990  0.29420  Biso   1.000  C
  C193     1.0000 0.95359  0.86590  0.21780  Biso   1.000  C
  H153     1.0000 0.95700  0.84550  0.15660  Biso   1.000  H
  C194     1.0000 0.78200  0.68100  0.22880  Biso   1.000  C
  H154     1.0000 0.77190  0.77990  0.22450  Biso   1.000  H
  C195     1.0000 0.94271  0.92220  0.39320  Biso   1.000  C
  H155     1.0000 0.93900  0.94150  0.45410  Biso   1.000  H
  C196     1.0000 0.95719  0.48180  0.53240  Biso   1.000  C
  H156     1.0000 0.96290  0.42520  0.48240  Biso   1.000  H
  C197     1.0000 0.77220  0.51500  0.21810  Biso   1.000  C
  H157     1.0000 0.75540  0.50050  0.20730  Biso   1.000  H
  C198     1.0000 0.96543  0.61770  0.68580  Biso   1.000  C
  H158     1.0000 0.97640  0.65420  0.73960  Biso   1.000  H
  C199     1.0000 0.96670  0.91580  0.38370  Biso   1.000  C
  H159     1.0000 0.97900  0.92880  0.43690  Biso   1.000  H
  C200     1.0000 0.97367  0.53470  0.61180  Biso   1.000  C
  H160     1.0000 0.99020  0.51400  0.61490  Biso   1.000  H
