data_image0
_cell_length_a       16.65
_cell_length_b       29.14
_cell_length_c       31.71
_cell_angle_alpha    90
_cell_angle_beta     90
_cell_angle_gamma    90

_symmetry_space_group_name_H-M    "P 1"
_symmetry_int_tables_number       1

loop_
  _symmetry_equiv_pos_as_xyz
  'x, y, z'

loop_
  _atom_site_label
  _atom_site_occupancy
  _atom_site_fract_x
  _atom_site_fract_y
  _atom_site_fract_z
  _atom_site_thermal_displace_type
  _atom_site_B_iso_or_equiv
  _atom_site_type_symbol
  Sn1      1.0000 0.81999  0.35585  0.12075  Biso   1.000  Sn
  C1       1.0000 0.72060  0.31970  0.14240  Biso   1.000  C
  H1       1.0000 0.70900  0.33010  0.17080  Biso   1.000  H
  H2       1.0000 0.67510  0.32810  0.12490  Biso   1.000  H
  C2       1.0000 0.72540  0.26740  0.14330  Biso   1.000  C
  H3       1.0000 0.77340  0.25840  0.15850  Biso   1.000  H
  H4       1.0000 0.73050  0.25620  0.11460  Biso   1.000  H
  C3       1.0000 0.65300  0.24460  0.16390  Biso   1.000  C
  H5       1.0000 0.60390  0.25650  0.15110  Biso   1.000  H
  H6       1.0000 0.65150  0.25240  0.19360  Biso   1.000  H
  C4       1.0000 0.65400  0.19230  0.15920  Biso   1.000  C
  H7       1.0000 0.62540  0.18370  0.13410  Biso   1.000  H
  H8       1.0000 0.62850  0.17850  0.18330  Biso   1.000  H
  H9       1.0000 0.70840  0.18190  0.15730  Biso   1.000  H
  C5       1.0000 0.92670  0.35710  0.15330  Biso   1.000  C
  H10      1.0000 0.97000  0.35530  0.13290  Biso   1.000  H
  H11      1.0000 0.93100  0.38670  0.16720  Biso   1.000  H
  C6       1.0000 0.94100  0.31990  0.18660  Biso   1.000  C
  H12      1.0000 0.91790  0.29120  0.17690  Biso   1.000  H
  H13      1.0000 0.99830  0.31520  0.19010  Biso   1.000  H
  C7       1.0000 0.90400  0.33270  0.22910  Biso   1.000  C
  H14      1.0000 0.84610  0.32910  0.22760  Biso   1.000  H
  H15      1.0000 0.91540  0.36470  0.23520  Biso   1.000  H
  C8       1.0000 0.93700  0.30300  0.26490  Biso   1.000  C
  H16      1.0000 0.90090  0.27770  0.27000  Biso   1.000  H
  H17      1.0000 0.94230  0.32090  0.29000  Biso   1.000  H
  H18      1.0000 0.98870  0.29090  0.25700  Biso   1.000  H
  C9       1.0000 0.82000  0.40760  0.07410  Biso   1.000  C
  H19      1.0000 0.77160  0.40450  0.05730  Biso   1.000  H
  H20      1.0000 0.81800  0.43720  0.08800  Biso   1.000  H
  C10      1.0000 0.89300  0.40660  0.04470  Biso   1.000  C
  H21      1.0000 0.94090  0.40590  0.06180  Biso   1.000  H
  H22      1.0000 0.89100  0.37820  0.02870  Biso   1.000  H
  C11      1.0000 0.90000  0.44620  0.01380  Biso   1.000  C
  H23      1.0000 0.89420  0.47490  0.02900  Biso   1.000  H
  H24      1.0000 0.85610  0.44440  0.99350  Biso   1.000  H
  C12      1.0000 0.98000  0.44560  0.99030  Biso   1.000  C
  H25      1.0000 0.99290  0.47600  0.98080  Biso   1.000  H
  H26      1.0000 0.97660  0.42540  0.96650  Biso   1.000  H
  H27      1.0000 0.02160  0.43500  0.00900  Biso   1.000  H
  Sn2      1.0000 0.82396  0.48843  0.24411  Biso   1.000  Sn
  C13      1.0000 0.76200  0.54220  0.27350  Biso   1.000  C
  H28      1.0000 0.74010  0.53080  0.29990  Biso   1.000  H
  H29      1.0000 0.80000  0.56620  0.28020  Biso   1.000  H
  C14      1.0000 0.69320  0.56350  0.24830  Biso   1.000  C
  H30      1.0000 0.64520  0.54530  0.25250  Biso   1.000  H
  H31      1.0000 0.70660  0.56230  0.21860  Biso   1.000  H
  C15      1.0000 0.67500  0.61320  0.26010  Biso   1.000  C
  H32      1.0000 0.70110  0.62050  0.28650  Biso   1.000  H
  H33      1.0000 0.61730  0.61650  0.26430  Biso   1.000  H
  C16      1.0000 0.70300  0.64710  0.22620  Biso   1.000  C
  H34      1.0000 0.69730  0.63320  0.19890  Biso   1.000  H
  H35      1.0000 0.75760  0.65510  0.23110  Biso   1.000  H
  H36      1.0000 0.66990  0.67430  0.22740  Biso   1.000  H
  C17      1.0000 0.91540  0.49020  0.20050  Biso   1.000  C
  H37      1.0000 0.95440  0.46700  0.20840  Biso   1.000  H
  H38      1.0000 0.89320  0.48110  0.17350  Biso   1.000  H
  C18      1.0000 0.96020  0.53530  0.19420  Biso   1.000  C
  H39      1.0000 0.01610  0.52890  0.18810  Biso   1.000  H
  H40      1.0000 0.95790  0.55310  0.22000  Biso   1.000  H
  C19      1.0000 0.92400  0.56340  0.15800  Biso   1.000  C
  H41      1.0000 0.88380  0.54530  0.14340  Biso   1.000  H
  H42      1.0000 0.89790  0.59050  0.16920  Biso   1.000  H
  C20      1.0000 0.99000  0.57780  0.12670  Biso   1.000  C
  H43      1.0000 0.04010  0.56490  0.13530  Biso   1.000  H
  H44      1.0000 0.99370  0.61070  0.12620  Biso   1.000  H
  H45      1.0000 0.97610  0.56690  0.09900  Biso   1.000  H
  C21      1.0000 0.81800  0.43500  0.28660  Biso   1.000  C
  H46      1.0000 0.85240  0.44250  0.31010  Biso   1.000  H
  H47      1.0000 0.76320  0.43390  0.29740  Biso   1.000  H
  C22      1.0000 0.84000  0.38680  0.27150  Biso   1.000  C
  H48      1.0000 0.89620  0.38130  0.27680  Biso   1.000  H
  H49      1.0000 0.83060  0.38470  0.24140  Biso   1.000  H
  C23      1.0000 0.79000  0.34980  0.29400  Biso   1.000  C
  H50      1.0000 0.76480  0.36290  0.31890  Biso   1.000  H
  H51      1.0000 0.74740  0.33930  0.27530  Biso   1.000  H
  C24      1.0000 0.84200  0.30890  0.30700  Biso   1.000  C
  H52      1.0000 0.88610  0.31950  0.32360  Biso   1.000  H
  H53      1.0000 0.86140  0.29370  0.28220  Biso   1.000  H
  H54      1.0000 0.81000  0.28780  0.32330  Biso   1.000  H
  Sn3      1.0000 0.31999  0.14415  0.87925  Biso   1.000  Sn
  C25      1.0000 0.22060  0.18030  0.85760  Biso   1.000  C
  H55      1.0000 0.20900  0.16990  0.82920  Biso   1.000  H
  H56      1.0000 0.17510  0.17190  0.87510  Biso   1.000  H
  C26      1.0000 0.22540  0.23260  0.85670  Biso   1.000  C
  H57      1.0000 0.27340  0.24160  0.84150  Biso   1.000  H
  H58      1.0000 0.23050  0.24380  0.88540  Biso   1.000  H
  C27      1.0000 0.15300  0.25540  0.83610  Biso   1.000  C
  H59      1.0000 0.10390  0.24350  0.84890  Biso   1.000  H
  H60      1.0000 0.15150  0.24760  0.80640  Biso   1.000  H
  C28      1.0000 0.15400  0.30770  0.84080  Biso   1.000  C
  H61      1.0000 0.12540  0.31630  0.86590  Biso   1.000  H
  H62      1.0000 0.12850  0.32150  0.81670  Biso   1.000  H
  H63      1.0000 0.20840  0.31810  0.84270  Biso   1.000  H
  C29      1.0000 0.42670  0.14290  0.84670  Biso   1.000  C
  H64      1.0000 0.47000  0.14470  0.86710  Biso   1.000  H
  H65      1.0000 0.43100  0.11330  0.83280  Biso   1.000  H
  C30      1.0000 0.44100  0.18010  0.81340  Biso   1.000  C
  H66      1.0000 0.41790  0.20880  0.82310  Biso   1.000  H
  H67      1.0000 0.49830  0.18480  0.80990  Biso   1.000  H
  C31      1.0000 0.40400  0.16730  0.77090  Biso   1.000  C
  H68      1.0000 0.34610  0.17090  0.77240  Biso   1.000  H
  H69      1.0000 0.41540  0.13530  0.76480  Biso   1.000  H
  C32      1.0000 0.43700  0.19700  0.73510  Biso   1.000  C
  H70      1.0000 0.40090  0.22230  0.73000  Biso   1.000  H
  H71      1.0000 0.44230  0.17910  0.71000  Biso   1.000  H
  H72      1.0000 0.48870  0.20910  0.74300  Biso   1.000  H
  C33      1.0000 0.32000  0.09240  0.92590  Biso   1.000  C
  H73      1.0000 0.27160  0.09550  0.94270  Biso   1.000  H
  H74      1.0000 0.31800  0.06280  0.91200  Biso   1.000  H
  C34      1.0000 0.39300  0.09340  0.95530  Biso   1.000  C
  H75      1.0000 0.44090  0.09410  0.93820  Biso   1.000  H
  H76      1.0000 0.39100  0.12180  0.97130  Biso   1.000  H
  C35      1.0000 0.40000  0.05380  0.98620  Biso   1.000  C
  H77      1.0000 0.39420  0.02510  0.97100  Biso   1.000  H
  H78      1.0000 0.35610  0.05560  0.00650  Biso   1.000  H
  C36      1.0000 0.48000  0.05440  0.00970  Biso   1.000  C
  H79      1.0000 0.49290  0.02400  0.01920  Biso   1.000  H
  H80      1.0000 0.47660  0.07460  0.03350  Biso   1.000  H
  H81      1.0000 0.52160  0.06500  0.99100  Biso   1.000  H
  Sn4      1.0000 0.32396  0.01157  0.75589  Biso   1.000  Sn
  C37      1.0000 0.26200  0.95780  0.72650  Biso   1.000  C
  H82      1.0000 0.24010  0.96920  0.70010  Biso   1.000  H
  H83      1.0000 0.30000  0.93380  0.71980  Biso   1.000  H
  C38      1.0000 0.19320  0.93650  0.75170  Biso   1.000  C
  H84      1.0000 0.14520  0.95470  0.74750  Biso   1.000  H
  H85      1.0000 0.20660  0.93770  0.78140  Biso   1.000  H
  C39      1.0000 0.17500  0.88680  0.73990  Biso   1.000  C
  H86      1.0000 0.20110  0.87950  0.71350  Biso   1.000  H
  H87      1.0000 0.11730  0.88350  0.73570  Biso   1.000  H
  C40      1.0000 0.20300  0.85290  0.77380  Biso   1.000  C
  H88      1.0000 0.19730  0.86680  0.80110  Biso   1.000  H
  H89      1.0000 0.25760  0.84490  0.76890  Biso   1.000  H
  H90      1.0000 0.16990  0.82570  0.77260  Biso   1.000  H
  C41      1.0000 0.41540  0.00980  0.79950  Biso   1.000  C
  H91      1.0000 0.45440  0.03300  0.79160  Biso   1.000  H
  H92      1.0000 0.39320  0.01890  0.82650  Biso   1.000  H
  C42      1.0000 0.46020  0.96470  0.80580  Biso   1.000  C
  H93      1.0000 0.51610  0.97110  0.81190  Biso   1.000  H
  H94      1.0000 0.45790  0.94690  0.78000  Biso   1.000  H
  C43      1.0000 0.42400  0.93660  0.84200  Biso   1.000  C
  H95      1.0000 0.38380  0.95470  0.85660  Biso   1.000  H
  H96      1.0000 0.39790  0.90950  0.83080  Biso   1.000  H
  C44      1.0000 0.49000  0.92220  0.87330  Biso   1.000  C
  H97      1.0000 0.54010  0.93510  0.86470  Biso   1.000  H
  H98      1.0000 0.49370  0.88930  0.87380  Biso   1.000  H
  H99      1.0000 0.47610  0.93310  0.90100  Biso   1.000  H
  C45      1.0000 0.31800  0.06500  0.71340  Biso   1.000  C
  H100     1.0000 0.35240  0.05750  0.68990  Biso   1.000  H
  H101     1.0000 0.26320  0.06610  0.70260  Biso   1.000  H
  C46      1.0000 0.34000  0.11320  0.72850  Biso   1.000  C
  H102     1.0000 0.39620  0.11870  0.72320  Biso   1.000  H
  H103     1.0000 0.33060  0.11530  0.75860  Biso   1.000  H
  C47      1.0000 0.29000  0.15020  0.70600  Biso   1.000  C
  H104     1.0000 0.26480  0.13710  0.68110  Biso   1.000  H
  H105     1.0000 0.24740  0.16070  0.72470  Biso   1.000  H
  C48      1.0000 0.34200  0.19110  0.69300  Biso   1.000  C
  H106     1.0000 0.38610  0.18050  0.67640  Biso   1.000  H
  H107     1.0000 0.36140  0.20630  0.71780  Biso   1.000  H
  H108     1.0000 0.31000  0.21220  0.67670  Biso   1.000  H
  Sn5      1.0000 0.32396  0.48843  0.25589  Biso   1.000  Sn
  C49      1.0000 0.26200  0.54220  0.22650  Biso   1.000  C
  H109     1.0000 0.24010  0.53080  0.20010  Biso   1.000  H
  H110     1.0000 0.30000  0.56620  0.21980  Biso   1.000  H
  C50      1.0000 0.19320  0.56350  0.25170  Biso   1.000  C
  H111     1.0000 0.14520  0.54530  0.24750  Biso   1.000  H
  H112     1.0000 0.20660  0.56230  0.28140  Biso   1.000  H
  C51      1.0000 0.17500  0.61320  0.23990  Biso   1.000  C
  H113     1.0000 0.20110  0.62050  0.21350  Biso   1.000  H
  H114     1.0000 0.11730  0.61650  0.23570  Biso   1.000  H
  C52      1.0000 0.20300  0.64710  0.27380  Biso   1.000  C
  H115     1.0000 0.19730  0.63320  0.30110  Biso   1.000  H
  H116     1.0000 0.25760  0.65510  0.26890  Biso   1.000  H
  H117     1.0000 0.16990  0.67430  0.27260  Biso   1.000  H
  C53      1.0000 0.41540  0.49020  0.29950  Biso   1.000  C
  H118     1.0000 0.45440  0.46700  0.29160  Biso   1.000  H
  H119     1.0000 0.39320  0.48110  0.32650  Biso   1.000  H
  C54      1.0000 0.46020  0.53530  0.30580  Biso   1.000  C
  H120     1.0000 0.51610  0.52890  0.31190  Biso   1.000  H
  H121     1.0000 0.45790  0.55310  0.28000  Biso   1.000  H
  C55      1.0000 0.42400  0.56340  0.34200  Biso   1.000  C
  H122     1.0000 0.38380  0.54530  0.35660  Biso   1.000  H
  H123     1.0000 0.39790  0.59050  0.33080  Biso   1.000  H
  C56      1.0000 0.49000  0.57780  0.37330  Biso   1.000  C
  H124     1.0000 0.54010  0.56490  0.36470  Biso   1.000  H
  H125     1.0000 0.49370  0.61070  0.37380  Biso   1.000  H
  H126     1.0000 0.47610  0.56690  0.40100  Biso   1.000  H
  C57      1.0000 0.31800  0.43500  0.21340  Biso   1.000  C
  H127     1.0000 0.35240  0.44250  0.18990  Biso   1.000  H
  H128     1.0000 0.26320  0.43390  0.20260  Biso   1.000  H
  C58      1.0000 0.34000  0.38680  0.22850  Biso   1.000  C
  H129     1.0000 0.39620  0.38130  0.22320  Biso   1.000  H
  H130     1.0000 0.33060  0.38470  0.25860  Biso   1.000  H
  C59      1.0000 0.29000  0.34980  0.20600  Biso   1.000  C
  H131     1.0000 0.26480  0.36290  0.18110  Biso   1.000  H
  H132     1.0000 0.24740  0.33930  0.22470  Biso   1.000  H
  C60      1.0000 0.34200  0.30890  0.19300  Biso   1.000  C
  H133     1.0000 0.38610  0.31950  0.17640  Biso   1.000  H
  H134     1.0000 0.36140  0.29370  0.21780  Biso   1.000  H
  H135     1.0000 0.31000  0.28780  0.17670  Biso   1.000  H
  Sn6      1.0000 0.31999  0.35585  0.37925  Biso   1.000  Sn
  C61      1.0000 0.22060  0.31970  0.35760  Biso   1.000  C
  H136     1.0000 0.20900  0.33010  0.32920  Biso   1.000  H
  H137     1.0000 0.17510  0.32810  0.37510  Biso   1.000  H
  C62      1.0000 0.22540  0.26740  0.35670  Biso   1.000  C
  H138     1.0000 0.27340  0.25840  0.34150  Biso   1.000  H
  H139     1.0000 0.23050  0.25620  0.38540  Biso   1.000  H
  C63      1.0000 0.15300  0.24460  0.33610  Biso   1.000  C
  H140     1.0000 0.10390  0.25650  0.34890  Biso   1.000  H
  H141     1.0000 0.15150  0.25240  0.30640  Biso   1.000  H
  C64      1.0000 0.15400  0.19230  0.34080  Biso   1.000  C
  H142     1.0000 0.12540  0.18370  0.36590  Biso   1.000  H
  H143     1.0000 0.12850  0.17850  0.31670  Biso   1.000  H
  H144     1.0000 0.20840  0.18190  0.34270  Biso   1.000  H
  C65      1.0000 0.42670  0.35710  0.34670  Biso   1.000  C
  H145     1.0000 0.47000  0.35530  0.36710  Biso   1.000  H
  H146     1.0000 0.43100  0.38670  0.33280  Biso   1.000  H
  C66      1.0000 0.44100  0.31990  0.31340  Biso   1.000  C
  H147     1.0000 0.41790  0.29120  0.32310  Biso   1.000  H
  H148     1.0000 0.49830  0.31520  0.30990  Biso   1.000  H
  C67      1.0000 0.40400  0.33270  0.27090  Biso   1.000  C
  H149     1.0000 0.34610  0.32910  0.27240  Biso   1.000  H
  H150     1.0000 0.41540  0.36470  0.26480  Biso   1.000  H
  C68      1.0000 0.43700  0.30300  0.23510  Biso   1.000  C
  H151     1.0000 0.40090  0.27770  0.23000  Biso   1.000  H
  H152     1.0000 0.44230  0.32090  0.21000  Biso   1.000  H
  H153     1.0000 0.48870  0.29090  0.24300  Biso   1.000  H
  C69      1.0000 0.32000  0.40760  0.42590  Biso   1.000  C
  H154     1.0000 0.27160  0.40450  0.44270  Biso   1.000  H
  H155     1.0000 0.31800  0.43720  0.41200  Biso   1.000  H
  C70      1.0000 0.39300  0.40660  0.45530  Biso   1.000  C
  H156     1.0000 0.44090  0.40590  0.43820  Biso   1.000  H
  H157     1.0000 0.39100  0.37820  0.47130  Biso   1.000  H
  C71      1.0000 0.40000  0.44620  0.48620  Biso   1.000  C
  H158     1.0000 0.39420  0.47490  0.47100  Biso   1.000  H
  H159     1.0000 0.35610  0.44440  0.50650  Biso   1.000  H
  C72      1.0000 0.48000  0.44560  0.50970  Biso   1.000  C
  H160     1.0000 0.49290  0.47600  0.51920  Biso   1.000  H
  H161     1.0000 0.47660  0.42540  0.53350  Biso   1.000  H
  H162     1.0000 0.52160  0.43500  0.49100  Biso   1.000  H
  Sn7      1.0000 0.68001  0.64415  0.62075  Biso   1.000  Sn
  C73      1.0000 0.77940  0.68030  0.64240  Biso   1.000  C
  H163     1.0000 0.79100  0.66990  0.67080  Biso   1.000  H
  H164     1.0000 0.82490  0.67190  0.62490  Biso   1.000  H
  C74      1.0000 0.77460  0.73260  0.64330  Biso   1.000  C
  H165     1.0000 0.72660  0.74160  0.65850  Biso   1.000  H
  H166     1.0000 0.76950  0.74380  0.61460  Biso   1.000  H
  C75      1.0000 0.84700  0.75540  0.66390  Biso   1.000  C
  H167     1.0000 0.89610  0.74350  0.65110  Biso   1.000  H
  H168     1.0000 0.84850  0.74760  0.69360  Biso   1.000  H
  C76      1.0000 0.84600  0.80770  0.65920  Biso   1.000  C
  H169     1.0000 0.87460  0.81630  0.63410  Biso   1.000  H
  H170     1.0000 0.87150  0.82150  0.68330  Biso   1.000  H
  H171     1.0000 0.79160  0.81810  0.65730  Biso   1.000  H
  C77      1.0000 0.57330  0.64290  0.65330  Biso   1.000  C
  H172     1.0000 0.53000  0.64470  0.63290  Biso   1.000  H
  H173     1.0000 0.56900  0.61330  0.66720  Biso   1.000  H
  C78      1.0000 0.55900  0.68010  0.68660  Biso   1.000  C
  H174     1.0000 0.58210  0.70880  0.67690  Biso   1.000  H
  H175     1.0000 0.50170  0.68480  0.69010  Biso   1.000  H
  C79      1.0000 0.59600  0.66730  0.72910  Biso   1.000  C
  H176     1.0000 0.65390  0.67090  0.72760  Biso   1.000  H
  H177     1.0000 0.58460  0.63530  0.73520  Biso   1.000  H
  C80      1.0000 0.56300  0.69700  0.76490  Biso   1.000  C
  H178     1.0000 0.59910  0.72230  0.77000  Biso   1.000  H
  H179     1.0000 0.55770  0.67910  0.79000  Biso   1.000  H
  H180     1.0000 0.51130  0.70910  0.75700  Biso   1.000  H
  C81      1.0000 0.68000  0.59240  0.57410  Biso   1.000  C
  H181     1.0000 0.72840  0.59550  0.55730  Biso   1.000  H
  H182     1.0000 0.68200  0.56280  0.58800  Biso   1.000  H
  C82      1.0000 0.60700  0.59340  0.54470  Biso   1.000  C
  H183     1.0000 0.55910  0.59410  0.56180  Biso   1.000  H
  H184     1.0000 0.60900  0.62180  0.52870  Biso   1.000  H
  C83      1.0000 0.60000  0.55380  0.51380  Biso   1.000  C
  H185     1.0000 0.60580  0.52510  0.52900  Biso   1.000  H
  H186     1.0000 0.64390  0.55560  0.49350  Biso   1.000  H
  C84      1.0000 0.52000  0.55440  0.49030  Biso   1.000  C
  H187     1.0000 0.50710  0.52400  0.48080  Biso   1.000  H
  H188     1.0000 0.52340  0.57460  0.46650  Biso   1.000  H
  H189     1.0000 0.47840  0.56500  0.50900  Biso   1.000  H
  Sn8      1.0000 0.67604  0.51157  0.74411  Biso   1.000  Sn
  C85      1.0000 0.73800  0.45780  0.77350  Biso   1.000  C
  H190     1.0000 0.75990  0.46920  0.79990  Biso   1.000  H
  H191     1.0000 0.70000  0.43380  0.78020  Biso   1.000  H
  C86      1.0000 0.80680  0.43650  0.74830  Biso   1.000  C
  H192     1.0000 0.85480  0.45470  0.75250  Biso   1.000  H
  H193     1.0000 0.79340  0.43770  0.71860  Biso   1.000  H
  C87      1.0000 0.82500  0.38680  0.76010  Biso   1.000  C
  H194     1.0000 0.79890  0.37950  0.78650  Biso   1.000  H
  H195     1.0000 0.88270  0.38350  0.76430  Biso   1.000  H
  C88      1.0000 0.79700  0.35290  0.72620  Biso   1.000  C
  H196     1.0000 0.80270  0.36680  0.69890  Biso   1.000  H
  H197     1.0000 0.74240  0.34490  0.73110  Biso   1.000  H
  H198     1.0000 0.83010  0.32570  0.72740  Biso   1.000  H
  C89      1.0000 0.58460  0.50980  0.70050  Biso   1.000  C
  H199     1.0000 0.54560  0.53300  0.70840  Biso   1.000  H
  H200     1.0000 0.60680  0.51890  0.67350  Biso   1.000  H
  C90      1.0000 0.53980  0.46470  0.69420  Biso   1.000  C
  H201     1.0000 0.48390  0.47110  0.68810  Biso   1.000  H
  H202     1.0000 0.54210  0.44690  0.72000  Biso   1.000  H
  C91      1.0000 0.57600  0.43660  0.65800  Biso   1.000  C
  H203     1.0000 0.61620  0.45470  0.64340  Biso   1.000  H
  H204     1.0000 0.60210  0.40950  0.66920  Biso   1.000  H
  C92      1.0000 0.51000  0.42220  0.62670  Biso   1.000  C
  H205     1.0000 0.45990  0.43510  0.63530  Biso   1.000  H
  H206     1.0000 0.50630  0.38930  0.62620  Biso   1.000  H
  H207     1.0000 0.52390  0.43310  0.59900  Biso   1.000  H
  C93      1.0000 0.68200  0.56500  0.78660  Biso   1.000  C
  H208     1.0000 0.64760  0.55750  0.81010  Biso   1.000  H
  H209     1.0000 0.73680  0.56610  0.79740  Biso   1.000  H
  C94      1.0000 0.66000  0.61320  0.77150  Biso   1.000  C
  H210     1.0000 0.60380  0.61870  0.77680  Biso   1.000  H
  H211     1.0000 0.66940  0.61530  0.74140  Biso   1.000  H
  C95      1.0000 0.71000  0.65020  0.79400  Biso   1.000  C
  H212     1.0000 0.73520  0.63710  0.81890  Biso   1.000  H
  H213     1.0000 0.75260  0.66070  0.77530  Biso   1.000  H
  C96      1.0000 0.65800  0.69110  0.80700  Biso   1.000  C
  H214     1.0000 0.61390  0.68050  0.82360  Biso   1.000  H
  H215     1.0000 0.63860  0.70630  0.78220  Biso   1.000  H
  H216     1.0000 0.69000  0.71220  0.82330  Biso   1.000  H
  Sn9      1.0000 0.18001  0.85585  0.37925  Biso   1.000  Sn
  C97      1.0000 0.27940  0.81970  0.35760  Biso   1.000  C
  H217     1.0000 0.29100  0.83010  0.32920  Biso   1.000  H
  H218     1.0000 0.32490  0.82810  0.37510  Biso   1.000  H
  C98      1.0000 0.27460  0.76740  0.35670  Biso   1.000  C
  H219     1.0000 0.22660  0.75840  0.34150  Biso   1.000  H
  H220     1.0000 0.26950  0.75620  0.38540  Biso   1.000  H
  C99      1.0000 0.34700  0.74460  0.33610  Biso   1.000  C
  H221     1.0000 0.39610  0.75650  0.34890  Biso   1.000  H
  H222     1.0000 0.34850  0.75240  0.30640  Biso   1.000  H
  C100     1.0000 0.34600  0.69230  0.34080  Biso   1.000  C
  H223     1.0000 0.37460  0.68370  0.36590  Biso   1.000  H
  H224     1.0000 0.37150  0.67850  0.31670  Biso   1.000  H
  H225     1.0000 0.29160  0.68190  0.34270  Biso   1.000  H
  C101     1.0000 0.07330  0.85710  0.34670  Biso   1.000  C
  H226     1.0000 0.03000  0.85530  0.36710  Biso   1.000  H
  H227     1.0000 0.06900  0.88670  0.33280  Biso   1.000  H
  C102     1.0000 0.05900  0.81990  0.31340  Biso   1.000  C
  H228     1.0000 0.08210  0.79120  0.32310  Biso   1.000  H
  H229     1.0000 0.00170  0.81520  0.30990  Biso   1.000  H
  C103     1.0000 0.09600  0.83270  0.27090  Biso   1.000  C
  H230     1.0000 0.15390  0.82910  0.27240  Biso   1.000  H
  H231     1.0000 0.08460  0.86470  0.26480  Biso   1.000  H
  C104     1.0000 0.06300  0.80300  0.23510  Biso   1.000  C
  H232     1.0000 0.09910  0.77770  0.23000  Biso   1.000  H
  H233     1.0000 0.05770  0.82090  0.21000  Biso   1.000  H
  H234     1.0000 0.01130  0.79090  0.24300  Biso   1.000  H
  C105     1.0000 0.18000  0.90760  0.42590  Biso   1.000  C
  H235     1.0000 0.22840  0.90450  0.44270  Biso   1.000  H
  H236     1.0000 0.18200  0.93720  0.41200  Biso   1.000  H
  C106     1.0000 0.10700  0.90660  0.45530  Biso   1.000  C
  H237     1.0000 0.05910  0.90590  0.43820  Biso   1.000  H
  H238     1.0000 0.10900  0.87820  0.47130  Biso   1.000  H
  C107     1.0000 0.10000  0.94620  0.48620  Biso   1.000  C
  H239     1.0000 0.10580  0.97490  0.47100  Biso   1.000  H
  H240     1.0000 0.14390  0.94440  0.50650  Biso   1.000  H
  C108     1.0000 0.02000  0.94560  0.50970  Biso   1.000  C
  H241     1.0000 0.00710  0.97600  0.51920  Biso   1.000  H
  H242     1.0000 0.02340  0.92540  0.53350  Biso   1.000  H
  H243     1.0000 0.97840  0.93500  0.49100  Biso   1.000  H
  Sn10     1.0000 0.17604  0.98843  0.25589  Biso   1.000  Sn
  C109     1.0000 0.23800  0.04220  0.22650  Biso   1.000  C
  H244     1.0000 0.25990  0.03080  0.20010  Biso   1.000  H
  H245     1.0000 0.20000  0.06620  0.21980  Biso   1.000  H
  C110     1.0000 0.30680  0.06350  0.25170  Biso   1.000  C
  H246     1.0000 0.35480  0.04530  0.24750  Biso   1.000  H
  H247     1.0000 0.29340  0.06230  0.28140  Biso   1.000  H
  C111     1.0000 0.32500  0.11320  0.23990  Biso   1.000  C
  H248     1.0000 0.29890  0.12050  0.21350  Biso   1.000  H
  H249     1.0000 0.38270  0.11650  0.23570  Biso   1.000  H
  C112     1.0000 0.29700  0.14710  0.27380  Biso   1.000  C
  H250     1.0000 0.30270  0.13320  0.30110  Biso   1.000  H
  H251     1.0000 0.24240  0.15510  0.26890  Biso   1.000  H
  H252     1.0000 0.33010  0.17430  0.27260  Biso   1.000  H
  C113     1.0000 0.08460  0.99020  0.29950  Biso   1.000  C
  H253     1.0000 0.04560  0.96700  0.29160  Biso   1.000  H
  H254     1.0000 0.10680  0.98110  0.32650  Biso   1.000  H
  C114     1.0000 0.03980  0.03530  0.30580  Biso   1.000  C
  H255     1.0000 0.98390  0.02890  0.31190  Biso   1.000  H
  H256     1.0000 0.04210  0.05310  0.28000  Biso   1.000  H
  C115     1.0000 0.07600  0.06340  0.34200  Biso   1.000  C
  H257     1.0000 0.11620  0.04530  0.35660  Biso   1.000  H
  H258     1.0000 0.10210  0.09050  0.33080  Biso   1.000  H
  C116     1.0000 0.01000  0.07780  0.37330  Biso   1.000  C
  H259     1.0000 0.95990  0.06490  0.36470  Biso   1.000  H
  H260     1.0000 0.00630  0.11070  0.37380  Biso   1.000  H
  H261     1.0000 0.02390  0.06690  0.40100  Biso   1.000  H
  C117     1.0000 0.18200  0.93500  0.21340  Biso   1.000  C
  H262     1.0000 0.14760  0.94250  0.18990  Biso   1.000  H
  H263     1.0000 0.23680  0.93390  0.20260  Biso   1.000  H
  C118     1.0000 0.16000  0.88680  0.22850  Biso   1.000  C
  H264     1.0000 0.10380  0.88130  0.22320  Biso   1.000  H
  H265     1.0000 0.16940  0.88470  0.25860  Biso   1.000  H
  C119     1.0000 0.21000  0.84980  0.20600  Biso   1.000  C
  H266     1.0000 0.23520  0.86290  0.18110  Biso   1.000  H
  H267     1.0000 0.25260  0.83930  0.22470  Biso   1.000  H
  C120     1.0000 0.15800  0.80890  0.19300  Biso   1.000  C
  H268     1.0000 0.11390  0.81950  0.17640  Biso   1.000  H
  H269     1.0000 0.13860  0.79370  0.21780  Biso   1.000  H
  H270     1.0000 0.19000  0.78780  0.17670  Biso   1.000  H
  Sn11     1.0000 0.17604  0.51157  0.75589  Biso   1.000  Sn
  C121     1.0000 0.23800  0.45780  0.72650  Biso   1.000  C
  H271     1.0000 0.25990  0.46920  0.70010  Biso   1.000  H
  H272     1.0000 0.20000  0.43380  0.71980  Biso   1.000  H
  C122     1.0000 0.30680  0.43650  0.75170  Biso   1.000  C
  H273     1.0000 0.35480  0.45470  0.74750  Biso   1.000  H
  H274     1.0000 0.29340  0.43770  0.78140  Biso   1.000  H
  C123     1.0000 0.32500  0.38680  0.73990  Biso   1.000  C
  H275     1.0000 0.29890  0.37950  0.71350  Biso   1.000  H
  H276     1.0000 0.38270  0.38350  0.73570  Biso   1.000  H
  C124     1.0000 0.29700  0.35290  0.77380  Biso   1.000  C
  H277     1.0000 0.30270  0.36680  0.80110  Biso   1.000  H
  H278     1.0000 0.24240  0.34490  0.76890  Biso   1.000  H
  H279     1.0000 0.33010  0.32570  0.77260  Biso   1.000  H
  C125     1.0000 0.08460  0.50980  0.79950  Biso   1.000  C
  H280     1.0000 0.04560  0.53300  0.79160  Biso   1.000  H
  H281     1.0000 0.10680  0.51890  0.82650  Biso   1.000  H
  C126     1.0000 0.03980  0.46470  0.80580  Biso   1.000  C
  H282     1.0000 0.98390  0.47110  0.81190  Biso   1.000  H
  H283     1.0000 0.04210  0.44690  0.78000  Biso   1.000  H
  C127     1.0000 0.07600  0.43660  0.84200  Biso   1.000  C
  H284     1.0000 0.11620  0.45470  0.85660  Biso   1.000  H
  H285     1.0000 0.10210  0.40950  0.83080  Biso   1.000  H
  C128     1.0000 0.01000  0.42220  0.87330  Biso   1.000  C
  H286     1.0000 0.95990  0.43510  0.86470  Biso   1.000  H
  H287     1.0000 0.00630  0.38930  0.87380  Biso   1.000  H
  H288     1.0000 0.02390  0.43310  0.90100  Biso   1.000  H
  C129     1.0000 0.18200  0.56500  0.71340  Biso   1.000  C
  H289     1.0000 0.14760  0.55750  0.68990  Biso   1.000  H
  H290     1.0000 0.23680  0.56610  0.70260  Biso   1.000  H
  C130     1.0000 0.16000  0.61320  0.72850  Biso   1.000  C
  H291     1.0000 0.10380  0.61870  0.72320  Biso   1.000  H
  H292     1.0000 0.16940  0.61530  0.75860  Biso   1.000  H
  C131     1.0000 0.21000  0.65020  0.70600  Biso   1.000  C
  H293     1.0000 0.23520  0.63710  0.68110  Biso   1.000  H
  H294     1.0000 0.25260  0.66070  0.72470  Biso   1.000  H
  C132     1.0000 0.15800  0.69110  0.69300  Biso   1.000  C
  H295     1.0000 0.11390  0.68050  0.67640  Biso   1.000  H
  H296     1.0000 0.13860  0.70630  0.71780  Biso   1.000  H
  H297     1.0000 0.19000  0.71220  0.67670  Biso   1.000  H
  Sn12     1.0000 0.18001  0.64415  0.87925  Biso   1.000  Sn
  C133     1.0000 0.27940  0.68030  0.85760  Biso   1.000  C
  H298     1.0000 0.29100  0.66990  0.82920  Biso   1.000  H
  H299     1.0000 0.32490  0.67190  0.87510  Biso   1.000  H
  C134     1.0000 0.27460  0.73260  0.85670  Biso   1.000  C
  H300     1.0000 0.22660  0.74160  0.84150  Biso   1.000  H
  H301     1.0000 0.26950  0.74380  0.88540  Biso   1.000  H
  C135     1.0000 0.34700  0.75540  0.83610  Biso   1.000  C
  H302     1.0000 0.39610  0.74350  0.84890  Biso   1.000  H
  H303     1.0000 0.34850  0.74760  0.80640  Biso   1.000  H
  C136     1.0000 0.34600  0.80770  0.84080  Biso   1.000  C
  H304     1.0000 0.37460  0.81630  0.86590  Biso   1.000  H
  H305     1.0000 0.37150  0.82150  0.81670  Biso   1.000  H
  H306     1.0000 0.29160  0.81810  0.84270  Biso   1.000  H
  C137     1.0000 0.07330  0.64290  0.84670  Biso   1.000  C
  H307     1.0000 0.03000  0.64470  0.86710  Biso   1.000  H
  H308     1.0000 0.06900  0.61330  0.83280  Biso   1.000  H
  C138     1.0000 0.05900  0.68010  0.81340  Biso   1.000  C
  H309     1.0000 0.08210  0.70880  0.82310  Biso   1.000  H
  H310     1.0000 0.00170  0.68480  0.80990  Biso   1.000  H
  C139     1.0000 0.09600  0.66730  0.77090  Biso   1.000  C
  H311     1.0000 0.15390  0.67090  0.77240  Biso   1.000  H
  H312     1.0000 0.08460  0.63530  0.76480  Biso   1.000  H
  C140     1.0000 0.06300  0.69700  0.73510  Biso   1.000  C
  H313     1.0000 0.09910  0.72230  0.73000  Biso   1.000  H
  H314     1.0000 0.05770  0.67910  0.71000  Biso   1.000  H
  H315     1.0000 0.01130  0.70910  0.74300  Biso   1.000  H
  C141     1.0000 0.18000  0.59240  0.92590  Biso   1.000  C
  H316     1.0000 0.22840  0.59550  0.94270  Biso   1.000  H
  H317     1.0000 0.18200  0.56280  0.91200  Biso   1.000  H
  C142     1.0000 0.10700  0.59340  0.95530  Biso   1.000  C
  H318     1.0000 0.05910  0.59410  0.93820  Biso   1.000  H
  H319     1.0000 0.10900  0.62180  0.97130  Biso   1.000  H
  C143     1.0000 0.10000  0.55380  0.98620  Biso   1.000  C
  H320     1.0000 0.10580  0.52510  0.97100  Biso   1.000  H
  H321     1.0000 0.14390  0.55560  0.00650  Biso   1.000  H
  C144     1.0000 0.02000  0.55440  0.00970  Biso   1.000  C
  H322     1.0000 0.00710  0.52400  0.01920  Biso   1.000  H
  H323     1.0000 0.02340  0.57460  0.03350  Biso   1.000  H
  H324     1.0000 0.97840  0.56500  0.99100  Biso   1.000  H
  Sn13     1.0000 0.67604  0.98843  0.24411  Biso   1.000  Sn
  C145     1.0000 0.73800  0.04220  0.27350  Biso   1.000  C
  H325     1.0000 0.75990  0.03080  0.29990  Biso   1.000  H
  H326     1.0000 0.70000  0.06620  0.28020  Biso   1.000  H
  C146     1.0000 0.80680  0.06350  0.24830  Biso   1.000  C
  H327     1.0000 0.85480  0.04530  0.25250  Biso   1.000  H
  H328     1.0000 0.79340  0.06230  0.21860  Biso   1.000  H
  C147     1.0000 0.82500  0.11320  0.26010  Biso   1.000  C
  H329     1.0000 0.79890  0.12050  0.28650  Biso   1.000  H
  H330     1.0000 0.88270  0.11650  0.26430  Biso   1.000  H
  C148     1.0000 0.79700  0.14710  0.22620  Biso   1.000  C
  H331     1.0000 0.80270  0.13320  0.19890  Biso   1.000  H
  H332     1.0000 0.74240  0.15510  0.23110  Biso   1.000  H
  H333     1.0000 0.83010  0.17430  0.22740  Biso   1.000  H
  C149     1.0000 0.58460  0.99020  0.20050  Biso   1.000  C
  H334     1.0000 0.54560  0.96700  0.20840  Biso   1.000  H
  H335     1.0000 0.60680  0.98110  0.17350  Biso   1.000  H
  C150     1.0000 0.53980  0.03530  0.19420  Biso   1.000  C
  H336     1.0000 0.48390  0.02890  0.18810  Biso   1.000  H
  H337     1.0000 0.54210  0.05310  0.22000  Biso   1.000  H
  C151     1.0000 0.57600  0.06340  0.15800  Biso   1.000  C
  H338     1.0000 0.61620  0.04530  0.14340  Biso   1.000  H
  H339     1.0000 0.60210  0.09050  0.16920  Biso   1.000  H
  C152     1.0000 0.51000  0.07780  0.12670  Biso   1.000  C
  H340     1.0000 0.45990  0.06490  0.13530  Biso   1.000  H
  H341     1.0000 0.50630  0.11070  0.12620  Biso   1.000  H
  H342     1.0000 0.52390  0.06690  0.09900  Biso   1.000  H
  C153     1.0000 0.68200  0.93500  0.28660  Biso   1.000  C
  H343     1.0000 0.64760  0.94250  0.31010  Biso   1.000  H
  H344     1.0000 0.73680  0.93390  0.29740  Biso   1.000  H
  C154     1.0000 0.66000  0.88680  0.27150  Biso   1.000  C
  H345     1.0000 0.60380  0.88130  0.27680  Biso   1.000  H
  H346     1.0000 0.66940  0.88470  0.24140  Biso   1.000  H
  C155     1.0000 0.71000  0.84980  0.29400  Biso   1.000  C
  H347     1.0000 0.73520  0.86290  0.31890  Biso   1.000  H
  H348     1.0000 0.75260  0.83930  0.27530  Biso   1.000  H
  C156     1.0000 0.65800  0.80890  0.30700  Biso   1.000  C
  H349     1.0000 0.61390  0.81950  0.32360  Biso   1.000  H
  H350     1.0000 0.63860  0.79370  0.28220  Biso   1.000  H
  H351     1.0000 0.69000  0.78780  0.32330  Biso   1.000  H
  Sn14     1.0000 0.68001  0.85585  0.12075  Biso   1.000  Sn
  C157     1.0000 0.77940  0.81970  0.14240  Biso   1.000  C
  H352     1.0000 0.79100  0.83010  0.17080  Biso   1.000  H
  H353     1.0000 0.82490  0.82810  0.12490  Biso   1.000  H
  C158     1.0000 0.77460  0.76740  0.14330  Biso   1.000  C
  H354     1.0000 0.72660  0.75840  0.15850  Biso   1.000  H
  H355     1.0000 0.76950  0.75620  0.11460  Biso   1.000  H
  C159     1.0000 0.84700  0.74460  0.16390  Biso   1.000  C
  H356     1.0000 0.89610  0.75650  0.15110  Biso   1.000  H
  H357     1.0000 0.84850  0.75240  0.19360  Biso   1.000  H
  C160     1.0000 0.84600  0.69230  0.15920  Biso   1.000  C
  H358     1.0000 0.87460  0.68370  0.13410  Biso   1.000  H
  H359     1.0000 0.87150  0.67850  0.18330  Biso   1.000  H
  H360     1.0000 0.79160  0.68190  0.15730  Biso   1.000  H
  C161     1.0000 0.57330  0.85710  0.15330  Biso   1.000  C
  H361     1.0000 0.53000  0.85530  0.13290  Biso   1.000  H
  H362     1.0000 0.56900  0.88670  0.16720  Biso   1.000  H
  C162     1.0000 0.55900  0.81990  0.18660  Biso   1.000  C
  H363     1.0000 0.58210  0.79120  0.17690  Biso   1.000  H
  H364     1.0000 0.50170  0.81520  0.19010  Biso   1.000  H
  C163     1.0000 0.59600  0.83270  0.22910  Biso   1.000  C
  H365     1.0000 0.65390  0.82910  0.22760  Biso   1.000  H
  H366     1.0000 0.58460  0.86470  0.23520  Biso   1.000  H
  C164     1.0000 0.56300  0.80300  0.26490  Biso   1.000  C
  H367     1.0000 0.59910  0.77770  0.27000  Biso   1.000  H
  H368     1.0000 0.55770  0.82090  0.29000  Biso   1.000  H
  H369     1.0000 0.51130  0.79090  0.25700  Biso   1.000  H
  C165     1.0000 0.68000  0.90760  0.07410  Biso   1.000  C
  H370     1.0000 0.72840  0.90450  0.05730  Biso   1.000  H
  H371     1.0000 0.68200  0.93720  0.08800  Biso   1.000  H
  C166     1.0000 0.60700  0.90660  0.04470  Biso   1.000  C
  H372     1.0000 0.55910  0.90590  0.06180  Biso   1.000  H
  H373     1.0000 0.60900  0.87820  0.02870  Biso   1.000  H
  C167     1.0000 0.60000  0.94620  0.01380  Biso   1.000  C
  H374     1.0000 0.60580  0.97490  0.02900  Biso   1.000  H
  H375     1.0000 0.64390  0.94440  0.99350  Biso   1.000  H
  C168     1.0000 0.52000  0.94560  0.99030  Biso   1.000  C
  H376     1.0000 0.50710  0.97600  0.98080  Biso   1.000  H
  H377     1.0000 0.52340  0.92540  0.96650  Biso   1.000  H
  H378     1.0000 0.47840  0.93500  0.00900  Biso   1.000  H
  Sn15     1.0000 0.82396  0.01157  0.74411  Biso   1.000  Sn
  C169     1.0000 0.76200  0.95780  0.77350  Biso   1.000  C
  H379     1.0000 0.74010  0.96920  0.79990  Biso   1.000  H
  H380     1.0000 0.80000  0.93380  0.78020  Biso   1.000  H
  C170     1.0000 0.69320  0.93650  0.74830  Biso   1.000  C
  H381     1.0000 0.64520  0.95470  0.75250  Biso   1.000  H
  H382     1.0000 0.70660  0.93770  0.71860  Biso   1.000  H
  C171     1.0000 0.67500  0.88680  0.76010  Biso   1.000  C
  H383     1.0000 0.70110  0.87950  0.78650  Biso   1.000  H
  H384     1.0000 0.61730  0.88350  0.76430  Biso   1.000  H
  C172     1.0000 0.70300  0.85290  0.72620  Biso   1.000  C
  H385     1.0000 0.69730  0.86680  0.69890  Biso   1.000  H
  H386     1.0000 0.75760  0.84490  0.73110  Biso   1.000  H
  H387     1.0000 0.66990  0.82570  0.72740  Biso   1.000  H
  C173     1.0000 0.91540  0.00980  0.70050  Biso   1.000  C
  H388     1.0000 0.95440  0.03300  0.70840  Biso   1.000  H
  H389     1.0000 0.89320  0.01890  0.67350  Biso   1.000  H
  C174     1.0000 0.96020  0.96470  0.69420  Biso   1.000  C
  H390     1.0000 0.01610  0.97110  0.68810  Biso   1.000  H
  H391     1.0000 0.95790  0.94690  0.72000  Biso   1.000  H
  C175     1.0000 0.92400  0.93660  0.65800  Biso   1.000  C
  H392     1.0000 0.88380  0.95470  0.64340  Biso   1.000  H
  H393     1.0000 0.89790  0.90950  0.66920  Biso   1.000  H
  C176     1.0000 0.99000  0.92220  0.62670  Biso   1.000  C
  H394     1.0000 0.04010  0.93510  0.63530  Biso   1.000  H
  H395     1.0000 0.99370  0.88930  0.62620  Biso   1.000  H
  H396     1.0000 0.97610  0.93310  0.59900  Biso   1.000  H
  C177     1.0000 0.81800  0.06500  0.78660  Biso   1.000  C
  H397     1.0000 0.85240  0.05750  0.81010  Biso   1.000  H
  H398     1.0000 0.76320  0.06610  0.79740  Biso   1.000  H
  C178     1.0000 0.84000  0.11320  0.77150  Biso   1.000  C
  H399     1.0000 0.89620  0.11870  0.77680  Biso   1.000  H
  H400     1.0000 0.83060  0.11530  0.74140  Biso   1.000  H
  C179     1.0000 0.79000  0.15020  0.79400  Biso   1.000  C
  H401     1.0000 0.76480  0.13710  0.81890  Biso   1.000  H
  H402     1.0000 0.74740  0.16070  0.77530  Biso   1.000  H
  C180     1.0000 0.84200  0.19110  0.80700  Biso   1.000  C
  H403     1.0000 0.88610  0.18050  0.82360  Biso   1.000  H
  H404     1.0000 0.86140  0.20630  0.78220  Biso   1.000  H
  H405     1.0000 0.81000  0.21220  0.82330  Biso   1.000  H
  Sn16     1.0000 0.81999  0.14415  0.62075  Biso   1.000  Sn
  C181     1.0000 0.72060  0.18030  0.64240  Biso   1.000  C
  H406     1.0000 0.70900  0.16990  0.67080  Biso   1.000  H
  H407     1.0000 0.67510  0.17190  0.62490  Biso   1.000  H
  C182     1.0000 0.72540  0.23260  0.64330  Biso   1.000  C
  H408     1.0000 0.77340  0.24160  0.65850  Biso   1.000  H
  H409     1.0000 0.73050  0.24380  0.61460  Biso   1.000  H
  C183     1.0000 0.65300  0.25540  0.66390  Biso   1.000  C
  H410     1.0000 0.60390  0.24350  0.65110  Biso   1.000  H
  H411     1.0000 0.65150  0.24760  0.69360  Biso   1.000  H
  C184     1.0000 0.65400  0.30770  0.65920  Biso   1.000  C
  H412     1.0000 0.62540  0.31630  0.63410  Biso   1.000  H
  H413     1.0000 0.62850  0.32150  0.68330  Biso   1.000  H
  H414     1.0000 0.70840  0.31810  0.65730  Biso   1.000  H
  C185     1.0000 0.92670  0.14290  0.65330  Biso   1.000  C
  H415     1.0000 0.97000  0.14470  0.63290  Biso   1.000  H
  H416     1.0000 0.93100  0.11330  0.66720  Biso   1.000  H
  C186     1.0000 0.94100  0.18010  0.68660  Biso   1.000  C
  H417     1.0000 0.91790  0.20880  0.67690  Biso   1.000  H
  H418     1.0000 0.99830  0.18480  0.69010  Biso   1.000  H
  C187     1.0000 0.90400  0.16730  0.72910  Biso   1.000  C
  H419     1.0000 0.84610  0.17090  0.72760  Biso   1.000  H
  H420     1.0000 0.91540  0.13530  0.73520  Biso   1.000  H
  C188     1.0000 0.93700  0.19700  0.76490  Biso   1.000  C
  H421     1.0000 0.90090  0.22230  0.77000  Biso   1.000  H
  H422     1.0000 0.94230  0.17910  0.79000  Biso   1.000  H
  H423     1.0000 0.98870  0.20910  0.75700  Biso   1.000  H
  C189     1.0000 0.82000  0.09240  0.57410  Biso   1.000  C
  H424     1.0000 0.77160  0.09550  0.55730  Biso   1.000  H
  H425     1.0000 0.81800  0.06280  0.58800  Biso   1.000  H
  C190     1.0000 0.89300  0.09340  0.54470  Biso   1.000  C
  H426     1.0000 0.94090  0.09410  0.56180  Biso   1.000  H
  H427     1.0000 0.89100  0.12180  0.52870  Biso   1.000  H
  C191     1.0000 0.90000  0.05380  0.51380  Biso   1.000  C
  H428     1.0000 0.89420  0.02510  0.52900  Biso   1.000  H
  H429     1.0000 0.85610  0.05560  0.49350  Biso   1.000  H
  C192     1.0000 0.98000  0.05440  0.49030  Biso   1.000  C
  H430     1.0000 0.99290  0.02400  0.48080  Biso   1.000  H
  H431     1.0000 0.97660  0.07460  0.46650  Biso   1.000  H
  H432     1.0000 0.02160  0.06500  0.50900  Biso   1.000  H
