data_image0
_cell_length_a       32.499
_cell_length_b       32.499
_cell_length_c       32.499
_cell_angle_alpha    90
_cell_angle_beta     90
_cell_angle_gamma    90

_symmetry_space_group_name_H-M    "P 1"
_symmetry_int_tables_number       1

loop_
  _symmetry_equiv_pos_as_xyz
  'x, y, z'

loop_
  _atom_site_label
  _atom_site_occupancy
  _atom_site_fract_x
  _atom_site_fract_y
  _atom_site_fract_z
  _atom_site_thermal_displace_type
  _atom_site_B_iso_or_equiv
  _atom_site_type_symbol
  Zr1      1.0000 0.00000  0.00000  0.07530  Biso   1.000  Zr
  Zr2      1.0000 0.00000  0.00000  0.92470  Biso   1.000  Zr
  Zr3      1.0000 0.07530  0.00000  0.00000  Biso   1.000  Zr
  Zr4      1.0000 0.92470  0.00000  0.00000  Biso   1.000  Zr
  Zr5      1.0000 0.00000  0.07530  0.00000  Biso   1.000  Zr
  Zr6      1.0000 0.00000  0.92470  0.00000  Biso   1.000  Zr
  O1       1.0000 0.03700  0.03700  0.03700  Biso   1.000  O
  O2       1.0000 0.96300  0.96300  0.03700  Biso   1.000  O
  O3       1.0000 0.96300  0.03700  0.96300  Biso   1.000  O
  O4       1.0000 0.03700  0.96300  0.96300  Biso   1.000  O
  O5       1.0000 0.03700  0.03700  0.96300  Biso   1.000  O
  O6       1.0000 0.96300  0.96300  0.96300  Biso   1.000  O
  O7       1.0000 0.03700  0.96300  0.03700  Biso   1.000  O
  O8       1.0000 0.96300  0.03700  0.03700  Biso   1.000  O
  O9       1.0000 0.00000  0.94230  0.10940  Biso   1.000  O
  C1       1.0000 0.00000  0.89000  0.16300  Biso   1.000  C
  O10      1.0000 0.00000  0.05770  0.10940  Biso   1.000  O
  C2       1.0000 0.00000  0.11000  0.16300  Biso   1.000  C
  O11      1.0000 0.00000  0.94230  0.89060  Biso   1.000  O
  C3       1.0000 0.00000  0.89000  0.83700  Biso   1.000  C
  O12      1.0000 0.00000  0.05770  0.89060  Biso   1.000  O
  C4       1.0000 0.00000  0.11000  0.83700  Biso   1.000  C
  O13      1.0000 0.10940  0.00000  0.94230  Biso   1.000  O
  C5       1.0000 0.16300  0.00000  0.89000  Biso   1.000  C
  O14      1.0000 0.10940  0.00000  0.05770  Biso   1.000  O
  C6       1.0000 0.16300  0.00000  0.11000  Biso   1.000  C
  O15      1.0000 0.89060  0.00000  0.94230  Biso   1.000  O
  C7       1.0000 0.83700  0.00000  0.89000  Biso   1.000  C
  O16      1.0000 0.89060  0.00000  0.05770  Biso   1.000  O
  C8       1.0000 0.83700  0.00000  0.11000  Biso   1.000  C
  O17      1.0000 0.94230  0.10940  0.00000  Biso   1.000  O
  C9       1.0000 0.89000  0.16300  0.00000  Biso   1.000  C
  O18      1.0000 0.05770  0.10940  0.00000  Biso   1.000  O
  C10      1.0000 0.11000  0.16300  0.00000  Biso   1.000  C
  O19      1.0000 0.94230  0.89060  0.00000  Biso   1.000  O
  C11      1.0000 0.89000  0.83700  0.00000  Biso   1.000  C
  O20      1.0000 0.05770  0.89060  0.00000  Biso   1.000  O
  C12      1.0000 0.11000  0.83700  0.00000  Biso   1.000  C
  O21      1.0000 0.94230  0.00000  0.89060  Biso   1.000  O
  C13      1.0000 0.89000  0.00000  0.83700  Biso   1.000  C
  O22      1.0000 0.05770  0.00000  0.89060  Biso   1.000  O
  C14      1.0000 0.11000  0.00000  0.83700  Biso   1.000  C
  O23      1.0000 0.94230  0.00000  0.10940  Biso   1.000  O
  C15      1.0000 0.89000  0.00000  0.16300  Biso   1.000  C
  O24      1.0000 0.05770  0.00000  0.10940  Biso   1.000  O
  C16      1.0000 0.11000  0.00000  0.16300  Biso   1.000  C
  O25      1.0000 0.00000  0.10940  0.05770  Biso   1.000  O
  C17      1.0000 0.00000  0.16300  0.11000  Biso   1.000  C
  O26      1.0000 0.00000  0.10940  0.94230  Biso   1.000  O
  C18      1.0000 0.00000  0.16300  0.89000  Biso   1.000  C
  O27      1.0000 0.00000  0.89060  0.05770  Biso   1.000  O
  C19      1.0000 0.00000  0.83700  0.11000  Biso   1.000  C
  O28      1.0000 0.00000  0.89060  0.94230  Biso   1.000  O
  C20      1.0000 0.00000  0.83700  0.89000  Biso   1.000  C
  O29      1.0000 0.10940  0.94230  0.00000  Biso   1.000  O
  C21      1.0000 0.16300  0.89000  0.00000  Biso   1.000  C
  O30      1.0000 0.10940  0.05770  0.00000  Biso   1.000  O
  C22      1.0000 0.16300  0.11000  0.00000  Biso   1.000  C
  O31      1.0000 0.89060  0.94230  0.00000  Biso   1.000  O
  C23      1.0000 0.83700  0.89000  0.00000  Biso   1.000  C
  O32      1.0000 0.89060  0.05770  0.00000  Biso   1.000  O
  C24      1.0000 0.83700  0.11000  0.00000  Biso   1.000  C
  C25      1.0000 0.00000  0.90470  0.09530  Biso   1.000  C
  C26      1.0000 0.00000  0.86850  0.13150  Biso   1.000  C
  C27      1.0000 0.00000  0.09530  0.09530  Biso   1.000  C
  C28      1.0000 0.00000  0.13150  0.13150  Biso   1.000  C
  C29      1.0000 0.00000  0.90470  0.90470  Biso   1.000  C
  C30      1.0000 0.00000  0.86850  0.86850  Biso   1.000  C
  C31      1.0000 0.00000  0.09530  0.90470  Biso   1.000  C
  C32      1.0000 0.00000  0.13150  0.86850  Biso   1.000  C
  C33      1.0000 0.09530  0.00000  0.90470  Biso   1.000  C
  C34      1.0000 0.13150  0.00000  0.86850  Biso   1.000  C
  C35      1.0000 0.09530  0.00000  0.09530  Biso   1.000  C
  C36      1.0000 0.13150  0.00000  0.13150  Biso   1.000  C
  C37      1.0000 0.90470  0.00000  0.90470  Biso   1.000  C
  C38      1.0000 0.86850  0.00000  0.86850  Biso   1.000  C
  C39      1.0000 0.90470  0.00000  0.09530  Biso   1.000  C
  C40      1.0000 0.86850  0.00000  0.13150  Biso   1.000  C
  C41      1.0000 0.90470  0.09530  0.00000  Biso   1.000  C
  C42      1.0000 0.86850  0.13150  0.00000  Biso   1.000  C
  C43      1.0000 0.09530  0.09530  0.00000  Biso   1.000  C
  C44      1.0000 0.13150  0.13150  0.00000  Biso   1.000  C
  C45      1.0000 0.90470  0.90470  0.00000  Biso   1.000  C
  C46      1.0000 0.86850  0.86850  0.00000  Biso   1.000  C
  C47      1.0000 0.09530  0.90470  0.00000  Biso   1.000  C
  C48      1.0000 0.13150  0.86850  0.00000  Biso   1.000  C
  Zr7      1.0000 0.00000  0.50000  0.57530  Biso   1.000  Zr
  Zr8      1.0000 0.00000  0.50000  0.42470  Biso   1.000  Zr
  Zr9      1.0000 0.07530  0.50000  0.50000  Biso   1.000  Zr
  Zr10     1.0000 0.92470  0.50000  0.50000  Biso   1.000  Zr
  Zr11     1.0000 0.00000  0.57530  0.50000  Biso   1.000  Zr
  Zr12     1.0000 0.00000  0.42470  0.50000  Biso   1.000  Zr
  O33      1.0000 0.03700  0.53700  0.53700  Biso   1.000  O
  O34      1.0000 0.96300  0.46300  0.53700  Biso   1.000  O
  O35      1.0000 0.96300  0.53700  0.46300  Biso   1.000  O
  O36      1.0000 0.03700  0.46300  0.46300  Biso   1.000  O
  O37      1.0000 0.03700  0.53700  0.46300  Biso   1.000  O
  O38      1.0000 0.96300  0.46300  0.46300  Biso   1.000  O
  O39      1.0000 0.03700  0.46300  0.53700  Biso   1.000  O
  O40      1.0000 0.96300  0.53700  0.53700  Biso   1.000  O
  O41      1.0000 0.00000  0.44230  0.60940  Biso   1.000  O
  C49      1.0000 0.00000  0.39000  0.66300  Biso   1.000  C
  O42      1.0000 0.00000  0.55770  0.60940  Biso   1.000  O
  C50      1.0000 0.00000  0.61000  0.66300  Biso   1.000  C
  O43      1.0000 0.00000  0.44230  0.39060  Biso   1.000  O
  C51      1.0000 0.00000  0.39000  0.33700  Biso   1.000  C
  O44      1.0000 0.00000  0.55770  0.39060  Biso   1.000  O
  C52      1.0000 0.00000  0.61000  0.33700  Biso   1.000  C
  O45      1.0000 0.10940  0.50000  0.44230  Biso   1.000  O
  C53      1.0000 0.16300  0.50000  0.39000  Biso   1.000  C
  O46      1.0000 0.10940  0.50000  0.55770  Biso   1.000  O
  C54      1.0000 0.16300  0.50000  0.61000  Biso   1.000  C
  O47      1.0000 0.89060  0.50000  0.44230  Biso   1.000  O
  C55      1.0000 0.83700  0.50000  0.39000  Biso   1.000  C
  O48      1.0000 0.89060  0.50000  0.55770  Biso   1.000  O
  C56      1.0000 0.83700  0.50000  0.61000  Biso   1.000  C
  O49      1.0000 0.94230  0.60940  0.50000  Biso   1.000  O
  C57      1.0000 0.89000  0.66300  0.50000  Biso   1.000  C
  O50      1.0000 0.05770  0.60940  0.50000  Biso   1.000  O
  C58      1.0000 0.11000  0.66300  0.50000  Biso   1.000  C
  O51      1.0000 0.94230  0.39060  0.50000  Biso   1.000  O
  C59      1.0000 0.89000  0.33700  0.50000  Biso   1.000  C
  O52      1.0000 0.05770  0.39060  0.50000  Biso   1.000  O
  C60      1.0000 0.11000  0.33700  0.50000  Biso   1.000  C
  O53      1.0000 0.94230  0.50000  0.39060  Biso   1.000  O
  C61      1.0000 0.89000  0.50000  0.33700  Biso   1.000  C
  O54      1.0000 0.05770  0.50000  0.39060  Biso   1.000  O
  C62      1.0000 0.11000  0.50000  0.33700  Biso   1.000  C
  O55      1.0000 0.94230  0.50000  0.60940  Biso   1.000  O
  C63      1.0000 0.89000  0.50000  0.66300  Biso   1.000  C
  O56      1.0000 0.05770  0.50000  0.60940  Biso   1.000  O
  C64      1.0000 0.11000  0.50000  0.66300  Biso   1.000  C
  O57      1.0000 0.00000  0.60940  0.55770  Biso   1.000  O
  C65      1.0000 0.00000  0.66300  0.61000  Biso   1.000  C
  O58      1.0000 0.00000  0.60940  0.44230  Biso   1.000  O
  C66      1.0000 0.00000  0.66300  0.39000  Biso   1.000  C
  O59      1.0000 0.00000  0.39060  0.55770  Biso   1.000  O
  C67      1.0000 0.00000  0.33700  0.61000  Biso   1.000  C
  O60      1.0000 0.00000  0.39060  0.44230  Biso   1.000  O
  C68      1.0000 0.00000  0.33700  0.39000  Biso   1.000  C
  O61      1.0000 0.10940  0.44230  0.50000  Biso   1.000  O
  C69      1.0000 0.16300  0.39000  0.50000  Biso   1.000  C
  O62      1.0000 0.10940  0.55770  0.50000  Biso   1.000  O
  C70      1.0000 0.16300  0.61000  0.50000  Biso   1.000  C
  O63      1.0000 0.89060  0.44230  0.50000  Biso   1.000  O
  C71      1.0000 0.83700  0.39000  0.50000  Biso   1.000  C
  O64      1.0000 0.89060  0.55770  0.50000  Biso   1.000  O
  C72      1.0000 0.83700  0.61000  0.50000  Biso   1.000  C
  C73      1.0000 0.00000  0.40470  0.59530  Biso   1.000  C
  C74      1.0000 0.00000  0.36850  0.63150  Biso   1.000  C
  C75      1.0000 0.00000  0.59530  0.59530  Biso   1.000  C
  C76      1.0000 0.00000  0.63150  0.63150  Biso   1.000  C
  C77      1.0000 0.00000  0.40470  0.40470  Biso   1.000  C
  C78      1.0000 0.00000  0.36850  0.36850  Biso   1.000  C
  C79      1.0000 0.00000  0.59530  0.40470  Biso   1.000  C
  C80      1.0000 0.00000  0.63150  0.36850  Biso   1.000  C
  C81      1.0000 0.09530  0.50000  0.40470  Biso   1.000  C
  C82      1.0000 0.13150  0.50000  0.36850  Biso   1.000  C
  C83      1.0000 0.09530  0.50000  0.59530  Biso   1.000  C
  C84      1.0000 0.13150  0.50000  0.63150  Biso   1.000  C
  C85      1.0000 0.90470  0.50000  0.40470  Biso   1.000  C
  C86      1.0000 0.86850  0.50000  0.36850  Biso   1.000  C
  C87      1.0000 0.90470  0.50000  0.59530  Biso   1.000  C
  C88      1.0000 0.86850  0.50000  0.63150  Biso   1.000  C
  C89      1.0000 0.90470  0.59530  0.50000  Biso   1.000  C
  C90      1.0000 0.86850  0.63150  0.50000  Biso   1.000  C
  C91      1.0000 0.09530  0.59530  0.50000  Biso   1.000  C
  C92      1.0000 0.13150  0.63150  0.50000  Biso   1.000  C
  C93      1.0000 0.90470  0.40470  0.50000  Biso   1.000  C
  C94      1.0000 0.86850  0.36850  0.50000  Biso   1.000  C
  C95      1.0000 0.09530  0.40470  0.50000  Biso   1.000  C
  C96      1.0000 0.13150  0.36850  0.50000  Biso   1.000  C
  Zr13     1.0000 0.50000  0.00000  0.57530  Biso   1.000  Zr
  Zr14     1.0000 0.50000  0.00000  0.42470  Biso   1.000  Zr
  Zr15     1.0000 0.57530  0.00000  0.50000  Biso   1.000  Zr
  Zr16     1.0000 0.42470  0.00000  0.50000  Biso   1.000  Zr
  Zr17     1.0000 0.50000  0.07530  0.50000  Biso   1.000  Zr
  Zr18     1.0000 0.50000  0.92470  0.50000  Biso   1.000  Zr
  O65      1.0000 0.53700  0.03700  0.53700  Biso   1.000  O
  O66      1.0000 0.46300  0.96300  0.53700  Biso   1.000  O
  O67      1.0000 0.46300  0.03700  0.46300  Biso   1.000  O
  O68      1.0000 0.53700  0.96300  0.46300  Biso   1.000  O
  O69      1.0000 0.53700  0.03700  0.46300  Biso   1.000  O
  O70      1.0000 0.46300  0.96300  0.46300  Biso   1.000  O
  O71      1.0000 0.53700  0.96300  0.53700  Biso   1.000  O
  O72      1.0000 0.46300  0.03700  0.53700  Biso   1.000  O
  O73      1.0000 0.50000  0.94230  0.60940  Biso   1.000  O
  C97      1.0000 0.50000  0.89000  0.66300  Biso   1.000  C
  O74      1.0000 0.50000  0.05770  0.60940  Biso   1.000  O
  C98      1.0000 0.50000  0.11000  0.66300  Biso   1.000  C
  O75      1.0000 0.50000  0.94230  0.39060  Biso   1.000  O
  C99      1.0000 0.50000  0.89000  0.33700  Biso   1.000  C
  O76      1.0000 0.50000  0.05770  0.39060  Biso   1.000  O
  C100     1.0000 0.50000  0.11000  0.33700  Biso   1.000  C
  O77      1.0000 0.60940  0.00000  0.44230  Biso   1.000  O
  C101     1.0000 0.66300  0.00000  0.39000  Biso   1.000  C
  O78      1.0000 0.60940  0.00000  0.55770  Biso   1.000  O
  C102     1.0000 0.66300  0.00000  0.61000  Biso   1.000  C
  O79      1.0000 0.39060  0.00000  0.44230  Biso   1.000  O
  C103     1.0000 0.33700  0.00000  0.39000  Biso   1.000  C
  O80      1.0000 0.39060  0.00000  0.55770  Biso   1.000  O
  C104     1.0000 0.33700  0.00000  0.61000  Biso   1.000  C
  O81      1.0000 0.44230  0.10940  0.50000  Biso   1.000  O
  C105     1.0000 0.39000  0.16300  0.50000  Biso   1.000  C
  O82      1.0000 0.55770  0.10940  0.50000  Biso   1.000  O
  C106     1.0000 0.61000  0.16300  0.50000  Biso   1.000  C
  O83      1.0000 0.44230  0.89060  0.50000  Biso   1.000  O
  C107     1.0000 0.39000  0.83700  0.50000  Biso   1.000  C
  O84      1.0000 0.55770  0.89060  0.50000  Biso   1.000  O
  C108     1.0000 0.61000  0.83700  0.50000  Biso   1.000  C
  O85      1.0000 0.44230  0.00000  0.39060  Biso   1.000  O
  C109     1.0000 0.39000  0.00000  0.33700  Biso   1.000  C
  O86      1.0000 0.55770  0.00000  0.39060  Biso   1.000  O
  C110     1.0000 0.61000  0.00000  0.33700  Biso   1.000  C
  O87      1.0000 0.44230  0.00000  0.60940  Biso   1.000  O
  C111     1.0000 0.39000  0.00000  0.66300  Biso   1.000  C
  O88      1.0000 0.55770  0.00000  0.60940  Biso   1.000  O
  C112     1.0000 0.61000  0.00000  0.66300  Biso   1.000  C
  O89      1.0000 0.50000  0.10940  0.55770  Biso   1.000  O
  C113     1.0000 0.50000  0.16300  0.61000  Biso   1.000  C
  O90      1.0000 0.50000  0.10940  0.44230  Biso   1.000  O
  C114     1.0000 0.50000  0.16300  0.39000  Biso   1.000  C
  O91      1.0000 0.50000  0.89060  0.55770  Biso   1.000  O
  C115     1.0000 0.50000  0.83700  0.61000  Biso   1.000  C
  O92      1.0000 0.50000  0.89060  0.44230  Biso   1.000  O
  C116     1.0000 0.50000  0.83700  0.39000  Biso   1.000  C
  O93      1.0000 0.60940  0.94230  0.50000  Biso   1.000  O
  C117     1.0000 0.66300  0.89000  0.50000  Biso   1.000  C
  O94      1.0000 0.60940  0.05770  0.50000  Biso   1.000  O
  C118     1.0000 0.66300  0.11000  0.50000  Biso   1.000  C
  O95      1.0000 0.39060  0.94230  0.50000  Biso   1.000  O
  C119     1.0000 0.33700  0.89000  0.50000  Biso   1.000  C
  O96      1.0000 0.39060  0.05770  0.50000  Biso   1.000  O
  C120     1.0000 0.33700  0.11000  0.50000  Biso   1.000  C
  C121     1.0000 0.50000  0.90470  0.59530  Biso   1.000  C
  C122     1.0000 0.50000  0.86850  0.63150  Biso   1.000  C
  C123     1.0000 0.50000  0.09530  0.59530  Biso   1.000  C
  C124     1.0000 0.50000  0.13150  0.63150  Biso   1.000  C
  C125     1.0000 0.50000  0.90470  0.40470  Biso   1.000  C
  C126     1.0000 0.50000  0.86850  0.36850  Biso   1.000  C
  C127     1.0000 0.50000  0.09530  0.40470  Biso   1.000  C
  C128     1.0000 0.50000  0.13150  0.36850  Biso   1.000  C
  C129     1.0000 0.59530  0.00000  0.40470  Biso   1.000  C
  C130     1.0000 0.63150  0.00000  0.36850  Biso   1.000  C
  C131     1.0000 0.59530  0.00000  0.59530  Biso   1.000  C
  C132     1.0000 0.63150  0.00000  0.63150  Biso   1.000  C
  C133     1.0000 0.40470  0.00000  0.40470  Biso   1.000  C
  C134     1.0000 0.36850  0.00000  0.36850  Biso   1.000  C
  C135     1.0000 0.40470  0.00000  0.59530  Biso   1.000  C
  C136     1.0000 0.36850  0.00000  0.63150  Biso   1.000  C
  C137     1.0000 0.40470  0.09530  0.50000  Biso   1.000  C
  C138     1.0000 0.36850  0.13150  0.50000  Biso   1.000  C
  C139     1.0000 0.59530  0.09530  0.50000  Biso   1.000  C
  C140     1.0000 0.63150  0.13150  0.50000  Biso   1.000  C
  C141     1.0000 0.40470  0.90470  0.50000  Biso   1.000  C
  C142     1.0000 0.36850  0.86850  0.50000  Biso   1.000  C
  C143     1.0000 0.59530  0.90470  0.50000  Biso   1.000  C
  C144     1.0000 0.63150  0.86850  0.50000  Biso   1.000  C
  Zr19     1.0000 0.50000  0.50000  0.07530  Biso   1.000  Zr
  Zr20     1.0000 0.50000  0.50000  0.92470  Biso   1.000  Zr
  Zr21     1.0000 0.57530  0.50000  0.00000  Biso   1.000  Zr
  Zr22     1.0000 0.42470  0.50000  0.00000  Biso   1.000  Zr
  Zr23     1.0000 0.50000  0.57530  0.00000  Biso   1.000  Zr
  Zr24     1.0000 0.50000  0.42470  0.00000  Biso   1.000  Zr
  O97      1.0000 0.53700  0.53700  0.03700  Biso   1.000  O
  O98      1.0000 0.46300  0.46300  0.03700  Biso   1.000  O
  O99      1.0000 0.46300  0.53700  0.96300  Biso   1.000  O
  O100     1.0000 0.53700  0.46300  0.96300  Biso   1.000  O
  O101     1.0000 0.53700  0.53700  0.96300  Biso   1.000  O
  O102     1.0000 0.46300  0.46300  0.96300  Biso   1.000  O
  O103     1.0000 0.53700  0.46300  0.03700  Biso   1.000  O
  O104     1.0000 0.46300  0.53700  0.03700  Biso   1.000  O
  O105     1.0000 0.50000  0.44230  0.10940  Biso   1.000  O
  C145     1.0000 0.50000  0.39000  0.16300  Biso   1.000  C
  O106     1.0000 0.50000  0.55770  0.10940  Biso   1.000  O
  C146     1.0000 0.50000  0.61000  0.16300  Biso   1.000  C
  O107     1.0000 0.50000  0.44230  0.89060  Biso   1.000  O
  C147     1.0000 0.50000  0.39000  0.83700  Biso   1.000  C
  O108     1.0000 0.50000  0.55770  0.89060  Biso   1.000  O
  C148     1.0000 0.50000  0.61000  0.83700  Biso   1.000  C
  O109     1.0000 0.60940  0.50000  0.94230  Biso   1.000  O
  C149     1.0000 0.66300  0.50000  0.89000  Biso   1.000  C
  O110     1.0000 0.60940  0.50000  0.05770  Biso   1.000  O
  C150     1.0000 0.66300  0.50000  0.11000  Biso   1.000  C
  O111     1.0000 0.39060  0.50000  0.94230  Biso   1.000  O
  C151     1.0000 0.33700  0.50000  0.89000  Biso   1.000  C
  O112     1.0000 0.39060  0.50000  0.05770  Biso   1.000  O
  C152     1.0000 0.33700  0.50000  0.11000  Biso   1.000  C
  O113     1.0000 0.44230  0.60940  0.00000  Biso   1.000  O
  C153     1.0000 0.39000  0.66300  0.00000  Biso   1.000  C
  O114     1.0000 0.55770  0.60940  0.00000  Biso   1.000  O
  C154     1.0000 0.61000  0.66300  0.00000  Biso   1.000  C
  O115     1.0000 0.44230  0.39060  0.00000  Biso   1.000  O
  C155     1.0000 0.39000  0.33700  0.00000  Biso   1.000  C
  O116     1.0000 0.55770  0.39060  0.00000  Biso   1.000  O
  C156     1.0000 0.61000  0.33700  0.00000  Biso   1.000  C
  O117     1.0000 0.44230  0.50000  0.89060  Biso   1.000  O
  C157     1.0000 0.39000  0.50000  0.83700  Biso   1.000  C
  O118     1.0000 0.55770  0.50000  0.89060  Biso   1.000  O
  C158     1.0000 0.61000  0.50000  0.83700  Biso   1.000  C
  O119     1.0000 0.44230  0.50000  0.10940  Biso   1.000  O
  C159     1.0000 0.39000  0.50000  0.16300  Biso   1.000  C
  O120     1.0000 0.55770  0.50000  0.10940  Biso   1.000  O
  C160     1.0000 0.61000  0.50000  0.16300  Biso   1.000  C
  O121     1.0000 0.50000  0.60940  0.05770  Biso   1.000  O
  C161     1.0000 0.50000  0.66300  0.11000  Biso   1.000  C
  O122     1.0000 0.50000  0.60940  0.94230  Biso   1.000  O
  C162     1.0000 0.50000  0.66300  0.89000  Biso   1.000  C
  O123     1.0000 0.50000  0.39060  0.05770  Biso   1.000  O
  C163     1.0000 0.50000  0.33700  0.11000  Biso   1.000  C
  O124     1.0000 0.50000  0.39060  0.94230  Biso   1.000  O
  C164     1.0000 0.50000  0.33700  0.89000  Biso   1.000  C
  O125     1.0000 0.60940  0.44230  0.00000  Biso   1.000  O
  C165     1.0000 0.66300  0.39000  0.00000  Biso   1.000  C
  O126     1.0000 0.60940  0.55770  0.00000  Biso   1.000  O
  C166     1.0000 0.66300  0.61000  0.00000  Biso   1.000  C
  O127     1.0000 0.39060  0.44230  0.00000  Biso   1.000  O
  C167     1.0000 0.33700  0.39000  0.00000  Biso   1.000  C
  O128     1.0000 0.39060  0.55770  0.00000  Biso   1.000  O
  C168     1.0000 0.33700  0.61000  0.00000  Biso   1.000  C
  C169     1.0000 0.50000  0.40470  0.09530  Biso   1.000  C
  C170     1.0000 0.50000  0.36850  0.13150  Biso   1.000  C
  C171     1.0000 0.50000  0.59530  0.09530  Biso   1.000  C
  C172     1.0000 0.50000  0.63150  0.13150  Biso   1.000  C
  C173     1.0000 0.50000  0.40470  0.90470  Biso   1.000  C
  C174     1.0000 0.50000  0.36850  0.86850  Biso   1.000  C
  C175     1.0000 0.50000  0.59530  0.90470  Biso   1.000  C
  C176     1.0000 0.50000  0.63150  0.86850  Biso   1.000  C
  C177     1.0000 0.59530  0.50000  0.90470  Biso   1.000  C
  C178     1.0000 0.63150  0.50000  0.86850  Biso   1.000  C
  C179     1.0000 0.59530  0.50000  0.09530  Biso   1.000  C
  C180     1.0000 0.63150  0.50000  0.13150  Biso   1.000  C
  C181     1.0000 0.40470  0.50000  0.90470  Biso   1.000  C
  C182     1.0000 0.36850  0.50000  0.86850  Biso   1.000  C
  C183     1.0000 0.40470  0.50000  0.09530  Biso   1.000  C
  C184     1.0000 0.36850  0.50000  0.13150  Biso   1.000  C
  C185     1.0000 0.40470  0.59530  0.00000  Biso   1.000  C
  C186     1.0000 0.36850  0.63150  0.00000  Biso   1.000  C
  C187     1.0000 0.59530  0.59530  0.00000  Biso   1.000  C
  C188     1.0000 0.63150  0.63150  0.00000  Biso   1.000  C
  C189     1.0000 0.40470  0.40470  0.00000  Biso   1.000  C
  C190     1.0000 0.36850  0.36850  0.00000  Biso   1.000  C
  C191     1.0000 0.59530  0.40470  0.00000  Biso   1.000  C
  C192     1.0000 0.63150  0.36850  0.00000  Biso   1.000  C
