data_image0
_cell_length_a       15.6449
_cell_length_b       21.5544
_cell_length_c       13.2606
_cell_angle_alpha    90
_cell_angle_beta     90.815
_cell_angle_gamma    90

_symmetry_space_group_name_H-M    "P 1"
_symmetry_int_tables_number       1

loop_
  _symmetry_equiv_pos_as_xyz
  'x, y, z'

loop_
  _atom_site_label
  _atom_site_occupancy
  _atom_site_fract_x
  _atom_site_fract_y
  _atom_site_fract_z
  _atom_site_thermal_displace_type
  _atom_site_B_iso_or_equiv
  _atom_site_type_symbol
  Cu1      1.0000 0.20157  0.10398  0.37819  Biso   1.000  Cu
  N1       1.0000 0.46090  0.37517  0.37860  Biso   1.000  N
  H1       1.0000 0.40660  0.38480  0.38560  Biso   1.000  H
  C1       1.0000 0.48440  0.31400  0.37200  Biso   1.000  C
  O1       1.0000 0.55790  0.29760  0.35710  Biso   1.000  O
  N2       1.0000 0.28450  0.17593  0.37930  Biso   1.000  N
  C2       1.0000 0.32170  0.28360  0.37590  Biso   1.000  C
  H2       1.0000 0.30360  0.32570  0.37520  Biso   1.000  H
  O2       1.0000 0.10897  0.15972  0.34340  Biso   1.000  O
  O3       1.0000 0.10200  0.14435  0.17790  Biso   1.000  O
  N3       1.0000 0.62376  0.52944  0.37210  Biso   1.000  N
  C3       1.0000 0.36800  0.16400  0.38020  Biso   1.000  C
  H3       1.0000 0.38580  0.12190  0.38160  Biso   1.000  H
  C4       1.0000 0.43060  0.20950  0.37910  Biso   1.000  C
  H4       1.0000 0.48940  0.19840  0.38050  Biso   1.000  H
  C5       1.0000 0.40770  0.26940  0.37620  Biso   1.000  C
  C6       1.0000 0.26070  0.23500  0.37670  Biso   1.000  C
  H5       1.0000 0.20150  0.24490  0.37540  Biso   1.000  H
  C7       1.0000 0.07790  0.16910  0.25660  Biso   1.000  C
  C8       1.0000 0.65820  0.47347  0.36520  Biso   1.000  C
  H6       1.0000 0.71850  0.47040  0.35900  Biso   1.000  H
  C9       1.0000 0.61090  0.41910  0.36660  Biso   1.000  C
  H7       1.0000 0.63830  0.37990  0.36230  Biso   1.000  H
  C10      1.0000 0.52300  0.42320  0.37440  Biso   1.000  C
  C11      1.0000 0.48640  0.48150  0.37910  Biso   1.000  C
  H8       1.0000 0.42610  0.48600  0.38290  Biso   1.000  H
  C12      1.0000 0.53830  0.53250  0.37830  Biso   1.000  C
  H9       1.0000 0.51240  0.57230  0.38230  Biso   1.000  H
  C13      1.0000 0.00650  0.25430  0.15680  Biso   1.000  C
  H10      1.0000 0.05670  0.28130  0.16350  Biso   1.000  H
  H11      1.0000 0.95490  0.27980  0.15020  Biso   1.000  H
  H12      1.0000 0.01210  0.22820  0.09670  Biso   1.000  H
  N4       1.0000 0.42290  0.34080  0.38320  Biso   1.000  N
  H13      1.0000 0.38520  0.37060  0.39130  Biso   1.000  H
  C14      1.0000 0.50830  0.34530  0.37380  Biso   1.000  C
  O4       1.0000 0.55200  0.29620  0.38600  Biso   1.000  O
  Cu2      1.0000 0.70157  0.60398  0.37819  Biso   1.000  Cu
  N5       1.0000 0.96090  0.87517  0.37860  Biso   1.000  N
  H14      1.0000 0.90660  0.88480  0.38560  Biso   1.000  H
  C15      1.0000 0.98440  0.81400  0.37200  Biso   1.000  C
  O5       1.0000 0.05790  0.79760  0.35710  Biso   1.000  O
  N6       1.0000 0.78450  0.67593  0.37930  Biso   1.000  N
  C16      1.0000 0.82170  0.78360  0.37590  Biso   1.000  C
  H15      1.0000 0.80360  0.82570  0.37520  Biso   1.000  H
  O6       1.0000 0.60897  0.65972  0.34340  Biso   1.000  O
  O7       1.0000 0.60200  0.64435  0.17790  Biso   1.000  O
  N7       1.0000 0.12376  0.02944  0.37210  Biso   1.000  N
  C17      1.0000 0.86800  0.66400  0.38020  Biso   1.000  C
  H16      1.0000 0.88580  0.62190  0.38160  Biso   1.000  H
  C18      1.0000 0.93060  0.70950  0.37910  Biso   1.000  C
  H17      1.0000 0.98940  0.69840  0.38050  Biso   1.000  H
  C19      1.0000 0.90770  0.76940  0.37620  Biso   1.000  C
  C20      1.0000 0.76070  0.73500  0.37670  Biso   1.000  C
  H18      1.0000 0.70150  0.74490  0.37540  Biso   1.000  H
  C21      1.0000 0.57790  0.66910  0.25660  Biso   1.000  C
  C22      1.0000 0.15820  0.97347  0.36520  Biso   1.000  C
  H19      1.0000 0.21850  0.97040  0.35900  Biso   1.000  H
  C23      1.0000 0.11090  0.91910  0.36660  Biso   1.000  C
  H20      1.0000 0.13830  0.87990  0.36230  Biso   1.000  H
  C24      1.0000 0.02300  0.92320  0.37440  Biso   1.000  C
  C25      1.0000 0.98640  0.98150  0.37910  Biso   1.000  C
  H21      1.0000 0.92610  0.98600  0.38290  Biso   1.000  H
  C26      1.0000 0.03830  0.03250  0.37830  Biso   1.000  C
  H22      1.0000 0.01240  0.07230  0.38230  Biso   1.000  H
  C27      1.0000 0.50650  0.75430  0.15680  Biso   1.000  C
  H23      1.0000 0.55670  0.78130  0.16350  Biso   1.000  H
  H24      1.0000 0.45490  0.77980  0.15020  Biso   1.000  H
  H25      1.0000 0.51210  0.72820  0.09670  Biso   1.000  H
  N8       1.0000 0.92290  0.84080  0.38320  Biso   1.000  N
  H26      1.0000 0.88520  0.87060  0.39130  Biso   1.000  H
  C28      1.0000 0.00830  0.84530  0.37380  Biso   1.000  C
  O8       1.0000 0.05200  0.79620  0.38600  Biso   1.000  O
  Cu3      1.0000 0.79843  0.10398  0.12181  Biso   1.000  Cu
  N9       1.0000 0.53910  0.37517  0.12140  Biso   1.000  N
  H27      1.0000 0.59340  0.38480  0.11440  Biso   1.000  H
  C29      1.0000 0.51560  0.31400  0.12800  Biso   1.000  C
  O9       1.0000 0.44210  0.29760  0.14290  Biso   1.000  O
  N10      1.0000 0.71550  0.17593  0.12070  Biso   1.000  N
  C30      1.0000 0.67830  0.28360  0.12410  Biso   1.000  C
  H28      1.0000 0.69640  0.32570  0.12480  Biso   1.000  H
  O10      1.0000 0.89103  0.15972  0.15660  Biso   1.000  O
  O11      1.0000 0.89800  0.14435  0.32210  Biso   1.000  O
  N11      1.0000 0.37624  0.52944  0.12790  Biso   1.000  N
  C31      1.0000 0.63200  0.16400  0.11980  Biso   1.000  C
  H29      1.0000 0.61420  0.12190  0.11840  Biso   1.000  H
  C32      1.0000 0.56940  0.20950  0.12090  Biso   1.000  C
  H30      1.0000 0.51060  0.19840  0.11950  Biso   1.000  H
  C33      1.0000 0.59230  0.26940  0.12380  Biso   1.000  C
  C34      1.0000 0.73930  0.23500  0.12330  Biso   1.000  C
  H31      1.0000 0.79850  0.24490  0.12460  Biso   1.000  H
  C35      1.0000 0.92210  0.16910  0.24340  Biso   1.000  C
  C36      1.0000 0.34180  0.47347  0.13480  Biso   1.000  C
  H32      1.0000 0.28150  0.47040  0.14100  Biso   1.000  H
  C37      1.0000 0.38910  0.41910  0.13340  Biso   1.000  C
  H33      1.0000 0.36170  0.37990  0.13770  Biso   1.000  H
  C38      1.0000 0.47700  0.42320  0.12560  Biso   1.000  C
  C39      1.0000 0.51360  0.48150  0.12090  Biso   1.000  C
  H34      1.0000 0.57390  0.48600  0.11710  Biso   1.000  H
  C40      1.0000 0.46170  0.53250  0.12170  Biso   1.000  C
  H35      1.0000 0.48760  0.57230  0.11770  Biso   1.000  H
  C41      1.0000 0.99350  0.25430  0.34320  Biso   1.000  C
  H36      1.0000 0.94330  0.28130  0.33650  Biso   1.000  H
  H37      1.0000 0.04510  0.27980  0.34980  Biso   1.000  H
  H38      1.0000 0.98790  0.22820  0.40330  Biso   1.000  H
  N12      1.0000 0.57710  0.34080  0.11680  Biso   1.000  N
  H39      1.0000 0.61480  0.37060  0.10870  Biso   1.000  H
  C42      1.0000 0.49170  0.34530  0.12620  Biso   1.000  C
  O12      1.0000 0.44800  0.29620  0.11400  Biso   1.000  O
  Cu4      1.0000 0.29843  0.60398  0.12181  Biso   1.000  Cu
  N13      1.0000 0.03910  0.87517  0.12140  Biso   1.000  N
  H40      1.0000 0.09340  0.88480  0.11440  Biso   1.000  H
  C43      1.0000 0.01560  0.81400  0.12800  Biso   1.000  C
  O13      1.0000 0.94210  0.79760  0.14290  Biso   1.000  O
  N14      1.0000 0.21550  0.67593  0.12070  Biso   1.000  N
  C44      1.0000 0.17830  0.78360  0.12410  Biso   1.000  C
  H41      1.0000 0.19640  0.82570  0.12480  Biso   1.000  H
  O14      1.0000 0.39103  0.65972  0.15660  Biso   1.000  O
  O15      1.0000 0.39800  0.64435  0.32210  Biso   1.000  O
  N15      1.0000 0.87624  0.02944  0.12790  Biso   1.000  N
  C45      1.0000 0.13200  0.66400  0.11980  Biso   1.000  C
  H42      1.0000 0.11420  0.62190  0.11840  Biso   1.000  H
  C46      1.0000 0.06940  0.70950  0.12090  Biso   1.000  C
  H43      1.0000 0.01060  0.69840  0.11950  Biso   1.000  H
  C47      1.0000 0.09230  0.76940  0.12380  Biso   1.000  C
  C48      1.0000 0.23930  0.73500  0.12330  Biso   1.000  C
  H44      1.0000 0.29850  0.74490  0.12460  Biso   1.000  H
  C49      1.0000 0.42210  0.66910  0.24340  Biso   1.000  C
  C50      1.0000 0.84180  0.97347  0.13480  Biso   1.000  C
  H45      1.0000 0.78150  0.97040  0.14100  Biso   1.000  H
  C51      1.0000 0.88910  0.91910  0.13340  Biso   1.000  C
  H46      1.0000 0.86170  0.87990  0.13770  Biso   1.000  H
  C52      1.0000 0.97700  0.92320  0.12560  Biso   1.000  C
  C53      1.0000 0.01360  0.98150  0.12090  Biso   1.000  C
  H47      1.0000 0.07390  0.98600  0.11710  Biso   1.000  H
  C54      1.0000 0.96170  0.03250  0.12170  Biso   1.000  C
  H48      1.0000 0.98760  0.07230  0.11770  Biso   1.000  H
  C55      1.0000 0.49350  0.75430  0.34320  Biso   1.000  C
  H49      1.0000 0.44330  0.78130  0.33650  Biso   1.000  H
  H50      1.0000 0.54510  0.77980  0.34980  Biso   1.000  H
  H51      1.0000 0.48790  0.72820  0.40330  Biso   1.000  H
  N16      1.0000 0.07710  0.84080  0.11680  Biso   1.000  N
  H52      1.0000 0.11480  0.87060  0.10870  Biso   1.000  H
  C56      1.0000 0.99170  0.84530  0.12620  Biso   1.000  C
  O16      1.0000 0.94800  0.79620  0.11400  Biso   1.000  O
  C57      1.0000 0.00000  0.21320  0.25000  Biso   1.000  C
  C58      1.0000 0.50000  0.71320  0.25000  Biso   1.000  C
  Cu5      1.0000 0.79843  0.89602  0.62181  Biso   1.000  Cu
  N17      1.0000 0.53910  0.62483  0.62140  Biso   1.000  N
  H53      1.0000 0.59340  0.61520  0.61440  Biso   1.000  H
  C59      1.0000 0.51560  0.68600  0.62800  Biso   1.000  C
  O17      1.0000 0.44210  0.70240  0.64290  Biso   1.000  O
  N18      1.0000 0.71550  0.82407  0.62070  Biso   1.000  N
  C60      1.0000 0.67830  0.71640  0.62410  Biso   1.000  C
  H54      1.0000 0.69640  0.67430  0.62480  Biso   1.000  H
  O18      1.0000 0.89103  0.84028  0.65660  Biso   1.000  O
  O19      1.0000 0.89800  0.85565  0.82210  Biso   1.000  O
  N19      1.0000 0.37624  0.47056  0.62790  Biso   1.000  N
  C61      1.0000 0.63200  0.83600  0.61980  Biso   1.000  C
  H55      1.0000 0.61420  0.87810  0.61840  Biso   1.000  H
  C62      1.0000 0.56940  0.79050  0.62090  Biso   1.000  C
  H56      1.0000 0.51060  0.80160  0.61950  Biso   1.000  H
  C63      1.0000 0.59230  0.73060  0.62380  Biso   1.000  C
  C64      1.0000 0.73930  0.76500  0.62330  Biso   1.000  C
  H57      1.0000 0.79850  0.75510  0.62460  Biso   1.000  H
  C65      1.0000 0.92210  0.83090  0.74340  Biso   1.000  C
  C66      1.0000 0.34180  0.52653  0.63480  Biso   1.000  C
  H58      1.0000 0.28150  0.52960  0.64100  Biso   1.000  H
  C67      1.0000 0.38910  0.58090  0.63340  Biso   1.000  C
  H59      1.0000 0.36170  0.62010  0.63770  Biso   1.000  H
  C68      1.0000 0.47700  0.57680  0.62560  Biso   1.000  C
  C69      1.0000 0.51360  0.51850  0.62090  Biso   1.000  C
  H60      1.0000 0.57390  0.51400  0.61710  Biso   1.000  H
  C70      1.0000 0.46170  0.46750  0.62170  Biso   1.000  C
  H61      1.0000 0.48760  0.42770  0.61770  Biso   1.000  H
  C71      1.0000 0.99350  0.74570  0.84320  Biso   1.000  C
  H62      1.0000 0.94330  0.71870  0.83650  Biso   1.000  H
  H63      1.0000 0.04510  0.72020  0.84980  Biso   1.000  H
  H64      1.0000 0.98790  0.77180  0.90330  Biso   1.000  H
  N20      1.0000 0.57710  0.65920  0.61680  Biso   1.000  N
  H65      1.0000 0.61480  0.62940  0.60870  Biso   1.000  H
  C72      1.0000 0.49170  0.65470  0.62620  Biso   1.000  C
  O20      1.0000 0.44800  0.70380  0.61400  Biso   1.000  O
  Cu6      1.0000 0.29843  0.39602  0.62181  Biso   1.000  Cu
  N21      1.0000 0.03910  0.12483  0.62140  Biso   1.000  N
  H66      1.0000 0.09340  0.11520  0.61440  Biso   1.000  H
  C73      1.0000 0.01560  0.18600  0.62800  Biso   1.000  C
  O21      1.0000 0.94210  0.20240  0.64290  Biso   1.000  O
  N22      1.0000 0.21550  0.32407  0.62070  Biso   1.000  N
  C74      1.0000 0.17830  0.21640  0.62410  Biso   1.000  C
  H67      1.0000 0.19640  0.17430  0.62480  Biso   1.000  H
  O22      1.0000 0.39103  0.34028  0.65660  Biso   1.000  O
  O23      1.0000 0.39800  0.35565  0.82210  Biso   1.000  O
  N23      1.0000 0.87624  0.97056  0.62790  Biso   1.000  N
  C75      1.0000 0.13200  0.33600  0.61980  Biso   1.000  C
  H68      1.0000 0.11420  0.37810  0.61840  Biso   1.000  H
  C76      1.0000 0.06940  0.29050  0.62090  Biso   1.000  C
  H69      1.0000 0.01060  0.30160  0.61950  Biso   1.000  H
  C77      1.0000 0.09230  0.23060  0.62380  Biso   1.000  C
  C78      1.0000 0.23930  0.26500  0.62330  Biso   1.000  C
  H70      1.0000 0.29850  0.25510  0.62460  Biso   1.000  H
  C79      1.0000 0.42210  0.33090  0.74340  Biso   1.000  C
  C80      1.0000 0.84180  0.02653  0.63480  Biso   1.000  C
  H71      1.0000 0.78150  0.02960  0.64100  Biso   1.000  H
  C81      1.0000 0.88910  0.08090  0.63340  Biso   1.000  C
  H72      1.0000 0.86170  0.12010  0.63770  Biso   1.000  H
  C82      1.0000 0.97700  0.07680  0.62560  Biso   1.000  C
  C83      1.0000 0.01360  0.01850  0.62090  Biso   1.000  C
  H73      1.0000 0.07390  0.01400  0.61710  Biso   1.000  H
  C84      1.0000 0.96170  0.96750  0.62170  Biso   1.000  C
  H74      1.0000 0.98760  0.92770  0.61770  Biso   1.000  H
  C85      1.0000 0.49350  0.24570  0.84320  Biso   1.000  C
  H75      1.0000 0.44330  0.21870  0.83650  Biso   1.000  H
  H76      1.0000 0.54510  0.22020  0.84980  Biso   1.000  H
  H77      1.0000 0.48790  0.27180  0.90330  Biso   1.000  H
  N24      1.0000 0.07710  0.15920  0.61680  Biso   1.000  N
  H78      1.0000 0.11480  0.12940  0.60870  Biso   1.000  H
  C86      1.0000 0.99170  0.15470  0.62620  Biso   1.000  C
  O24      1.0000 0.94800  0.20380  0.61400  Biso   1.000  O
  Cu7      1.0000 0.20157  0.89602  0.87819  Biso   1.000  Cu
  N25      1.0000 0.46090  0.62483  0.87860  Biso   1.000  N
  H79      1.0000 0.40660  0.61520  0.88560  Biso   1.000  H
  C87      1.0000 0.48440  0.68600  0.87200  Biso   1.000  C
  O25      1.0000 0.55790  0.70240  0.85710  Biso   1.000  O
  N26      1.0000 0.28450  0.82407  0.87930  Biso   1.000  N
  C88      1.0000 0.32170  0.71640  0.87590  Biso   1.000  C
  H80      1.0000 0.30360  0.67430  0.87520  Biso   1.000  H
  O26      1.0000 0.10897  0.84028  0.84340  Biso   1.000  O
  O27      1.0000 0.10200  0.85565  0.67790  Biso   1.000  O
  N27      1.0000 0.62376  0.47056  0.87210  Biso   1.000  N
  C89      1.0000 0.36800  0.83600  0.88020  Biso   1.000  C
  H81      1.0000 0.38580  0.87810  0.88160  Biso   1.000  H
  C90      1.0000 0.43060  0.79050  0.87910  Biso   1.000  C
  H82      1.0000 0.48940  0.80160  0.88050  Biso   1.000  H
  C91      1.0000 0.40770  0.73060  0.87620  Biso   1.000  C
  C92      1.0000 0.26070  0.76500  0.87670  Biso   1.000  C
  H83      1.0000 0.20150  0.75510  0.87540  Biso   1.000  H
  C93      1.0000 0.07790  0.83090  0.75660  Biso   1.000  C
  C94      1.0000 0.65820  0.52653  0.86520  Biso   1.000  C
  H84      1.0000 0.71850  0.52960  0.85900  Biso   1.000  H
  C95      1.0000 0.61090  0.58090  0.86660  Biso   1.000  C
  H85      1.0000 0.63830  0.62010  0.86230  Biso   1.000  H
  C96      1.0000 0.52300  0.57680  0.87440  Biso   1.000  C
  C97      1.0000 0.48640  0.51850  0.87910  Biso   1.000  C
  H86      1.0000 0.42610  0.51400  0.88290  Biso   1.000  H
  C98      1.0000 0.53830  0.46750  0.87830  Biso   1.000  C
  H87      1.0000 0.51240  0.42770  0.88230  Biso   1.000  H
  C99      1.0000 0.00650  0.74570  0.65680  Biso   1.000  C
  H88      1.0000 0.05670  0.71870  0.66350  Biso   1.000  H
  H89      1.0000 0.95490  0.72020  0.65020  Biso   1.000  H
  H90      1.0000 0.01210  0.77180  0.59670  Biso   1.000  H
  N28      1.0000 0.42290  0.65920  0.88320  Biso   1.000  N
  H91      1.0000 0.38520  0.62940  0.89130  Biso   1.000  H
  C100     1.0000 0.50830  0.65470  0.87380  Biso   1.000  C
  O28      1.0000 0.55200  0.70380  0.88600  Biso   1.000  O
  Cu8      1.0000 0.70157  0.39602  0.87819  Biso   1.000  Cu
  N29      1.0000 0.96090  0.12483  0.87860  Biso   1.000  N
  H92      1.0000 0.90660  0.11520  0.88560  Biso   1.000  H
  C101     1.0000 0.98440  0.18600  0.87200  Biso   1.000  C
  O29      1.0000 0.05790  0.20240  0.85710  Biso   1.000  O
  N30      1.0000 0.78450  0.32407  0.87930  Biso   1.000  N
  C102     1.0000 0.82170  0.21640  0.87590  Biso   1.000  C
  H93      1.0000 0.80360  0.17430  0.87520  Biso   1.000  H
  O30      1.0000 0.60897  0.34028  0.84340  Biso   1.000  O
  O31      1.0000 0.60200  0.35565  0.67790  Biso   1.000  O
  N31      1.0000 0.12376  0.97056  0.87210  Biso   1.000  N
  C103     1.0000 0.86800  0.33600  0.88020  Biso   1.000  C
  H94      1.0000 0.88580  0.37810  0.88160  Biso   1.000  H
  C104     1.0000 0.93060  0.29050  0.87910  Biso   1.000  C
  H95      1.0000 0.98940  0.30160  0.88050  Biso   1.000  H
  C105     1.0000 0.90770  0.23060  0.87620  Biso   1.000  C
  C106     1.0000 0.76070  0.26500  0.87670  Biso   1.000  C
  H96      1.0000 0.70150  0.25510  0.87540  Biso   1.000  H
  C107     1.0000 0.57790  0.33090  0.75660  Biso   1.000  C
  C108     1.0000 0.15820  0.02653  0.86520  Biso   1.000  C
  H97      1.0000 0.21850  0.02960  0.85900  Biso   1.000  H
  C109     1.0000 0.11090  0.08090  0.86660  Biso   1.000  C
  H98      1.0000 0.13830  0.12010  0.86230  Biso   1.000  H
  C110     1.0000 0.02300  0.07680  0.87440  Biso   1.000  C
  C111     1.0000 0.98640  0.01850  0.87910  Biso   1.000  C
  H99      1.0000 0.92610  0.01400  0.88290  Biso   1.000  H
  C112     1.0000 0.03830  0.96750  0.87830  Biso   1.000  C
  H100     1.0000 0.01240  0.92770  0.88230  Biso   1.000  H
  C113     1.0000 0.50650  0.24570  0.65680  Biso   1.000  C
  H101     1.0000 0.55670  0.21870  0.66350  Biso   1.000  H
  H102     1.0000 0.45490  0.22020  0.65020  Biso   1.000  H
  H103     1.0000 0.51210  0.27180  0.59670  Biso   1.000  H
  N32      1.0000 0.92290  0.15920  0.88320  Biso   1.000  N
  H104     1.0000 0.88520  0.12940  0.89130  Biso   1.000  H
  C114     1.0000 0.00830  0.15470  0.87380  Biso   1.000  C
  O32      1.0000 0.05200  0.20380  0.88600  Biso   1.000  O
  C115     1.0000 0.00000  0.78680  0.75000  Biso   1.000  C
  C116     1.0000 0.50000  0.28680  0.75000  Biso   1.000  C
