data_image0
_cell_length_a       22.28
_cell_length_b       22.2
_cell_length_c       11.198
_cell_angle_alpha    90
_cell_angle_beta     90.931
_cell_angle_gamma    90

_symmetry_space_group_name_H-M    "P 1"
_symmetry_int_tables_number       1

loop_
  _symmetry_equiv_pos_as_xyz
  'x, y, z'

loop_
  _atom_site_label
  _atom_site_occupancy
  _atom_site_fract_x
  _atom_site_fract_y
  _atom_site_fract_z
  _atom_site_thermal_displace_type
  _atom_site_B_iso_or_equiv
  _atom_site_type_symbol
  N1       1.0000 0.40815  0.35469  0.52050  Biso   1.000  N
  N2       1.0000 0.09088  0.35840  0.52300  Biso   1.000  N
  C1       1.0000 0.28301  0.35670  0.53250  Biso   1.000  C
  C2       1.0000 0.21546  0.35750  0.53360  Biso   1.000  C
  C3       1.0000 0.31210  0.33600  0.42970  Biso   1.000  C
  H1       1.0000 0.28960  0.32350  0.36130  Biso   1.000  H
  C4       1.0000 0.18340  0.32910  0.62100  Biso   1.000  C
  H2       1.0000 0.20340  0.30960  0.68600  Biso   1.000  H
  C5       1.0000 0.12370  0.38720  0.44110  Biso   1.000  C
  H3       1.0000 0.10340  0.40870  0.37930  Biso   1.000  H
  C6       1.0000 0.37990  0.37450  0.61890  Biso   1.000  C
  H4       1.0000 0.40340  0.38860  0.68460  Biso   1.000  H
  C7       1.0000 0.18520  0.38680  0.44280  Biso   1.000  C
  H5       1.0000 0.20670  0.40660  0.38170  Biso   1.000  H
  C8       1.0000 0.12130  0.32950  0.61210  Biso   1.000  C
  H6       1.0000 0.09910  0.30870  0.67090  Biso   1.000  H
  C9       1.0000 0.31840  0.37510  0.62770  Biso   1.000  C
  H7       1.0000 0.30040  0.38820  0.69940  Biso   1.000  H
  C10      1.0000 0.37350  0.33430  0.43030  Biso   1.000  C
  H8       1.0000 0.39280  0.31760  0.36280  Biso   1.000  H
  C11      1.0000 0.48400  0.17270  0.60070  Biso   1.000  C
  H9       1.0000 0.47260  0.15210  0.67120  Biso   1.000  H
  C12      1.0000 0.48470  0.23560  0.59820  Biso   1.000  C
  H10      1.0000 0.47410  0.25740  0.66770  Biso   1.000  H
  C13      1.0000 0.00550  0.17270  0.39600  Biso   1.000  C
  H11      1.0000 0.00830  0.15240  0.32160  Biso   1.000  H
  C14      1.0000 0.96660  0.97930  0.42070  Biso   1.000  C
  H12      1.0000 0.94180  0.95820  0.36500  Biso   1.000  H
  C15      1.0000 0.47440  0.04150  0.40620  Biso   1.000  C
  H13      1.0000 0.45660  0.06190  0.33990  Biso   1.000  H
  C16      1.0000 0.00680  0.23410  0.39970  Biso   1.000  C
  H14      1.0000 0.01290  0.25560  0.32750  Biso   1.000  H
  C17      1.0000 0.47500  0.97920  0.40990  Biso   1.000  C
  H15      1.0000 0.45680  0.95760  0.34570  Biso   1.000  H
  C18      1.0000 0.96670  0.04120  0.41680  Biso   1.000  C
  H16      1.0000 0.94400  0.06190  0.35720  Biso   1.000  H
  N3       1.0000 0.90815  0.85469  0.52050  Biso   1.000  N
  N4       1.0000 0.59088  0.85840  0.52300  Biso   1.000  N
  C19      1.0000 0.78301  0.85670  0.53250  Biso   1.000  C
  C20      1.0000 0.71546  0.85750  0.53360  Biso   1.000  C
  C21      1.0000 0.81210  0.83600  0.42970  Biso   1.000  C
  H17      1.0000 0.78960  0.82350  0.36130  Biso   1.000  H
  C22      1.0000 0.68340  0.82910  0.62100  Biso   1.000  C
  H18      1.0000 0.70340  0.80960  0.68600  Biso   1.000  H
  C23      1.0000 0.62370  0.88720  0.44110  Biso   1.000  C
  H19      1.0000 0.60340  0.90870  0.37930  Biso   1.000  H
  C24      1.0000 0.87990  0.87450  0.61890  Biso   1.000  C
  H20      1.0000 0.90340  0.88860  0.68460  Biso   1.000  H
  C25      1.0000 0.68520  0.88680  0.44280  Biso   1.000  C
  H21      1.0000 0.70670  0.90660  0.38170  Biso   1.000  H
  C26      1.0000 0.62130  0.82950  0.61210  Biso   1.000  C
  H22      1.0000 0.59910  0.80870  0.67090  Biso   1.000  H
  C27      1.0000 0.81840  0.87510  0.62770  Biso   1.000  C
  H23      1.0000 0.80040  0.88820  0.69940  Biso   1.000  H
  C28      1.0000 0.87350  0.83430  0.43030  Biso   1.000  C
  H24      1.0000 0.89280  0.81760  0.36280  Biso   1.000  H
  C29      1.0000 0.98400  0.67270  0.60070  Biso   1.000  C
  H25      1.0000 0.97260  0.65210  0.67120  Biso   1.000  H
  C30      1.0000 0.98470  0.73560  0.59820  Biso   1.000  C
  H26      1.0000 0.97410  0.75740  0.66770  Biso   1.000  H
  C31      1.0000 0.50550  0.67270  0.39600  Biso   1.000  C
  H27      1.0000 0.50830  0.65240  0.32160  Biso   1.000  H
  C32      1.0000 0.46660  0.47930  0.42070  Biso   1.000  C
  H28      1.0000 0.44180  0.45820  0.36500  Biso   1.000  H
  C33      1.0000 0.97440  0.54150  0.40620  Biso   1.000  C
  H29      1.0000 0.95660  0.56190  0.33990  Biso   1.000  H
  C34      1.0000 0.50680  0.73410  0.39970  Biso   1.000  C
  H30      1.0000 0.51290  0.75560  0.32750  Biso   1.000  H
  C35      1.0000 0.97500  0.47920  0.40990  Biso   1.000  C
  H31      1.0000 0.95680  0.45760  0.34570  Biso   1.000  H
  C36      1.0000 0.46670  0.54120  0.41680  Biso   1.000  C
  H32      1.0000 0.44400  0.56190  0.35720  Biso   1.000  H
  N5       1.0000 0.59185  0.35469  0.47950  Biso   1.000  N
  N6       1.0000 0.90912  0.35840  0.47700  Biso   1.000  N
  C37      1.0000 0.71699  0.35670  0.46750  Biso   1.000  C
  C38      1.0000 0.78454  0.35750  0.46640  Biso   1.000  C
  C39      1.0000 0.68790  0.33600  0.57030  Biso   1.000  C
  H33      1.0000 0.71040  0.32350  0.63870  Biso   1.000  H
  C40      1.0000 0.81660  0.32910  0.37900  Biso   1.000  C
  H34      1.0000 0.79660  0.30960  0.31400  Biso   1.000  H
  C41      1.0000 0.87630  0.38720  0.55890  Biso   1.000  C
  H35      1.0000 0.89660  0.40870  0.62070  Biso   1.000  H
  C42      1.0000 0.62010  0.37450  0.38110  Biso   1.000  C
  H36      1.0000 0.59660  0.38860  0.31540  Biso   1.000  H
  C43      1.0000 0.81480  0.38680  0.55720  Biso   1.000  C
  H37      1.0000 0.79330  0.40660  0.61830  Biso   1.000  H
  C44      1.0000 0.87870  0.32950  0.38790  Biso   1.000  C
  H38      1.0000 0.90090  0.30870  0.32910  Biso   1.000  H
  C45      1.0000 0.68160  0.37510  0.37230  Biso   1.000  C
  H39      1.0000 0.69960  0.38820  0.30060  Biso   1.000  H
  C46      1.0000 0.62650  0.33430  0.56970  Biso   1.000  C
  H40      1.0000 0.60720  0.31760  0.63720  Biso   1.000  H
  C47      1.0000 0.51600  0.17270  0.39930  Biso   1.000  C
  H41      1.0000 0.52740  0.15210  0.32880  Biso   1.000  H
  C48      1.0000 0.51530  0.23560  0.40180  Biso   1.000  C
  H42      1.0000 0.52590  0.25740  0.33230  Biso   1.000  H
  C49      1.0000 0.99450  0.17270  0.60400  Biso   1.000  C
  H43      1.0000 0.99170  0.15240  0.67840  Biso   1.000  H
  C50      1.0000 0.03340  0.97930  0.57930  Biso   1.000  C
  H44      1.0000 0.05820  0.95820  0.63500  Biso   1.000  H
  C51      1.0000 0.52560  0.04150  0.59380  Biso   1.000  C
  H45      1.0000 0.54340  0.06190  0.66010  Biso   1.000  H
  C52      1.0000 0.99320  0.23410  0.60030  Biso   1.000  C
  H46      1.0000 0.98710  0.25560  0.67250  Biso   1.000  H
  C53      1.0000 0.52500  0.97920  0.59010  Biso   1.000  C
  H47      1.0000 0.54320  0.95760  0.65430  Biso   1.000  H
  C54      1.0000 0.03330  0.04120  0.58320  Biso   1.000  C
  H48      1.0000 0.05600  0.06190  0.64280  Biso   1.000  H
  N7       1.0000 0.09185  0.85469  0.47950  Biso   1.000  N
  N8       1.0000 0.40912  0.85840  0.47700  Biso   1.000  N
  C55      1.0000 0.21699  0.85670  0.46750  Biso   1.000  C
  C56      1.0000 0.28454  0.85750  0.46640  Biso   1.000  C
  C57      1.0000 0.18790  0.83600  0.57030  Biso   1.000  C
  H49      1.0000 0.21040  0.82350  0.63870  Biso   1.000  H
  C58      1.0000 0.31660  0.82910  0.37900  Biso   1.000  C
  H50      1.0000 0.29660  0.80960  0.31400  Biso   1.000  H
  C59      1.0000 0.37630  0.88720  0.55890  Biso   1.000  C
  H51      1.0000 0.39660  0.90870  0.62070  Biso   1.000  H
  C60      1.0000 0.12010  0.87450  0.38110  Biso   1.000  C
  H52      1.0000 0.09660  0.88860  0.31540  Biso   1.000  H
  C61      1.0000 0.31480  0.88680  0.55720  Biso   1.000  C
  H53      1.0000 0.29330  0.90660  0.61830  Biso   1.000  H
  C62      1.0000 0.37870  0.82950  0.38790  Biso   1.000  C
  H54      1.0000 0.40090  0.80870  0.32910  Biso   1.000  H
  C63      1.0000 0.18160  0.87510  0.37230  Biso   1.000  C
  H55      1.0000 0.19960  0.88820  0.30060  Biso   1.000  H
  C64      1.0000 0.12650  0.83430  0.56970  Biso   1.000  C
  H56      1.0000 0.10720  0.81760  0.63720  Biso   1.000  H
  C65      1.0000 0.01600  0.67270  0.39930  Biso   1.000  C
  H57      1.0000 0.02740  0.65210  0.32880  Biso   1.000  H
  C66      1.0000 0.01530  0.73560  0.40180  Biso   1.000  C
  H58      1.0000 0.02590  0.75740  0.33230  Biso   1.000  H
  C67      1.0000 0.49450  0.67270  0.60400  Biso   1.000  C
  H59      1.0000 0.49170  0.65240  0.67840  Biso   1.000  H
  C68      1.0000 0.53340  0.47930  0.57930  Biso   1.000  C
  H60      1.0000 0.55820  0.45820  0.63500  Biso   1.000  H
  C69      1.0000 0.02560  0.54150  0.59380  Biso   1.000  C
  H61      1.0000 0.04340  0.56190  0.66010  Biso   1.000  H
  C70      1.0000 0.49320  0.73410  0.60030  Biso   1.000  C
  H62      1.0000 0.48710  0.75560  0.67250  Biso   1.000  H
  C71      1.0000 0.02500  0.47920  0.59010  Biso   1.000  C
  H63      1.0000 0.04320  0.45760  0.65430  Biso   1.000  H
  C72      1.0000 0.53330  0.54120  0.58320  Biso   1.000  C
  H64      1.0000 0.55600  0.56190  0.64280  Biso   1.000  H
  Cu1      1.0000 0.50000  0.35700  0.50000  Biso   1.000  Cu
  N9       1.0000 0.50000  0.94830  0.50000  Biso   1.000  N
  N10      1.0000 0.50000  0.26560  0.50000  Biso   1.000  N
  C73      1.0000 0.50000  0.07420  0.50000  Biso   1.000  C
  C74      1.0000 0.50000  0.14020  0.50000  Biso   1.000  C
  Cu2      1.0000 0.00000  0.85700  0.50000  Biso   1.000  Cu
  N11      1.0000 0.00000  0.44830  0.50000  Biso   1.000  N
  N12      1.0000 0.00000  0.76560  0.50000  Biso   1.000  N
  C75      1.0000 0.00000  0.57420  0.50000  Biso   1.000  C
  C76      1.0000 0.00000  0.64020  0.50000  Biso   1.000  C
  Cu3      1.0000 0.00000  0.35719  0.50000  Biso   1.000  Cu
  N13      1.0000 0.00000  0.26520  0.50000  Biso   1.000  N
  N14      1.0000 0.00000  0.94680  0.50000  Biso   1.000  N
  C77      1.0000 0.00000  0.14020  0.50000  Biso   1.000  C
  C78      1.0000 0.00000  0.07270  0.50000  Biso   1.000  C
  Cu4      1.0000 0.50000  0.85719  0.50000  Biso   1.000  Cu
  N15      1.0000 0.50000  0.76520  0.50000  Biso   1.000  N
  N16      1.0000 0.50000  0.44680  0.50000  Biso   1.000  N
  C79      1.0000 0.50000  0.64020  0.50000  Biso   1.000  C
  C80      1.0000 0.50000  0.57270  0.50000  Biso   1.000  C
