data_image0
_cell_length_a       18.11
_cell_length_b       19.789
_cell_length_c       9.205
_cell_angle_alpha    90
_cell_angle_beta     102.48
_cell_angle_gamma    90

_symmetry_space_group_name_H-M    "P 1"
_symmetry_int_tables_number       1

loop_
  _symmetry_equiv_pos_as_xyz
  'x, y, z'

loop_
  _atom_site_label
  _atom_site_occupancy
  _atom_site_fract_x
  _atom_site_fract_y
  _atom_site_fract_z
  _atom_site_thermal_displace_type
  _atom_site_B_iso_or_equiv
  _atom_site_type_symbol
  N1       1.0000 0.58420  0.39550  0.78160  Biso   1.000  N
  N2       1.0000 0.92140  0.74900  0.72730  Biso   1.000  N
  C1       1.0000 0.64630  0.38800  0.72370  Biso   1.000  C
  H1       1.0000 0.65100  0.34930  0.66920  Biso   1.000  H
  C2       1.0000 0.70290  0.43620  0.74310  Biso   1.000  C
  H2       1.0000 0.74640  0.42790  0.70740  Biso   1.000  H
  C3       1.0000 0.69600  0.49620  0.81450  Biso   1.000  C
  C4       1.0000 0.63270  0.50390  0.87380  Biso   1.000  C
  H3       1.0000 0.62560  0.54330  0.92420  Biso   1.000  H
  C5       1.0000 0.58070  0.45310  0.85760  Biso   1.000  C
  H4       1.0000 0.53970  0.45870  0.90240  Biso   1.000  H
  C6       1.0000 0.87250  0.73480  0.60220  Biso   1.000  C
  H5       1.0000 0.87440  0.76050  0.51850  Biso   1.000  H
  C7       1.0000 0.81900  0.68450  0.58790  Biso   1.000  C
  H6       1.0000 0.78550  0.67760  0.49720  Biso   1.000  H
  C8       1.0000 0.81550  0.64400  0.71020  Biso   1.000  C
  C9       1.0000 0.86840  0.65710  0.84050  Biso   1.000  C
  H7       1.0000 0.86950  0.63070  0.92460  Biso   1.000  H
  C10      1.0000 0.91960  0.70930  0.84500  Biso   1.000  C
  H8       1.0000 0.95440  0.71740  0.93360  Biso   1.000  H
  C11      1.0000 0.75470  0.59140  0.69570  Biso   1.000  C
  H9       1.0000 0.75940  0.56050  0.61640  Biso   1.000  H
  H10      1.0000 0.70580  0.61330  0.66730  Biso   1.000  H
  C12      1.0000 0.75710  0.55110  0.83660  Biso   1.000  C
  H11      1.0000 0.75000  0.58150  0.91520  Biso   1.000  H
  H12      1.0000 0.80640  0.53020  0.86750  Biso   1.000  H
  N3       1.0000 0.08420  0.89550  0.78160  Biso   1.000  N
  N4       1.0000 0.42140  0.24900  0.72730  Biso   1.000  N
  C13      1.0000 0.14630  0.88800  0.72370  Biso   1.000  C
  H13      1.0000 0.15100  0.84930  0.66920  Biso   1.000  H
  C14      1.0000 0.20290  0.93620  0.74310  Biso   1.000  C
  H14      1.0000 0.24640  0.92790  0.70740  Biso   1.000  H
  C15      1.0000 0.19600  0.99620  0.81450  Biso   1.000  C
  C16      1.0000 0.13270  0.00390  0.87380  Biso   1.000  C
  H15      1.0000 0.12560  0.04330  0.92420  Biso   1.000  H
  C17      1.0000 0.08070  0.95310  0.85760  Biso   1.000  C
  H16      1.0000 0.03970  0.95870  0.90240  Biso   1.000  H
  C18      1.0000 0.37250  0.23480  0.60220  Biso   1.000  C
  H17      1.0000 0.37440  0.26050  0.51850  Biso   1.000  H
  C19      1.0000 0.31900  0.18450  0.58790  Biso   1.000  C
  H18      1.0000 0.28550  0.17760  0.49720  Biso   1.000  H
  C20      1.0000 0.31550  0.14400  0.71020  Biso   1.000  C
  C21      1.0000 0.36840  0.15710  0.84050  Biso   1.000  C
  H19      1.0000 0.36950  0.13070  0.92460  Biso   1.000  H
  C22      1.0000 0.41960  0.20930  0.84500  Biso   1.000  C
  H20      1.0000 0.45440  0.21740  0.93360  Biso   1.000  H
  C23      1.0000 0.25470  0.09140  0.69570  Biso   1.000  C
  H21      1.0000 0.25940  0.06050  0.61640  Biso   1.000  H
  H22      1.0000 0.20580  0.11330  0.66730  Biso   1.000  H
  C24      1.0000 0.25710  0.05110  0.83660  Biso   1.000  C
  H23      1.0000 0.25000  0.08150  0.91520  Biso   1.000  H
  H24      1.0000 0.30640  0.03020  0.86750  Biso   1.000  H
  N5       1.0000 0.41580  0.39550  0.71840  Biso   1.000  N
  N6       1.0000 0.07860  0.74900  0.77270  Biso   1.000  N
  C25      1.0000 0.35370  0.38800  0.77630  Biso   1.000  C
  H25      1.0000 0.34900  0.34930  0.83080  Biso   1.000  H
  C26      1.0000 0.29710  0.43620  0.75690  Biso   1.000  C
  H26      1.0000 0.25360  0.42790  0.79260  Biso   1.000  H
  C27      1.0000 0.30400  0.49620  0.68550  Biso   1.000  C
  C28      1.0000 0.36730  0.50390  0.62620  Biso   1.000  C
  H27      1.0000 0.37440  0.54330  0.57580  Biso   1.000  H
  C29      1.0000 0.41930  0.45310  0.64240  Biso   1.000  C
  H28      1.0000 0.46030  0.45870  0.59760  Biso   1.000  H
  C30      1.0000 0.12750  0.73480  0.89780  Biso   1.000  C
  H29      1.0000 0.12560  0.76050  0.98150  Biso   1.000  H
  C31      1.0000 0.18100  0.68450  0.91210  Biso   1.000  C
  H30      1.0000 0.21450  0.67760  0.00280  Biso   1.000  H
  C32      1.0000 0.18450  0.64400  0.78980  Biso   1.000  C
  C33      1.0000 0.13160  0.65710  0.65950  Biso   1.000  C
  H31      1.0000 0.13050  0.63070  0.57540  Biso   1.000  H
  C34      1.0000 0.08040  0.70930  0.65500  Biso   1.000  C
  H32      1.0000 0.04560  0.71740  0.56640  Biso   1.000  H
  C35      1.0000 0.24530  0.59140  0.80430  Biso   1.000  C
  H33      1.0000 0.24060  0.56050  0.88360  Biso   1.000  H
  H34      1.0000 0.29420  0.61330  0.83270  Biso   1.000  H
  C36      1.0000 0.24290  0.55110  0.66340  Biso   1.000  C
  H35      1.0000 0.25000  0.58150  0.58480  Biso   1.000  H
  H36      1.0000 0.19360  0.53020  0.63250  Biso   1.000  H
  N7       1.0000 0.91580  0.89550  0.71840  Biso   1.000  N
  N8       1.0000 0.57860  0.24900  0.77270  Biso   1.000  N
  C37      1.0000 0.85370  0.88800  0.77630  Biso   1.000  C
  H37      1.0000 0.84900  0.84930  0.83080  Biso   1.000  H
  C38      1.0000 0.79710  0.93620  0.75690  Biso   1.000  C
  H38      1.0000 0.75360  0.92790  0.79260  Biso   1.000  H
  C39      1.0000 0.80400  0.99620  0.68550  Biso   1.000  C
  C40      1.0000 0.86730  0.00390  0.62620  Biso   1.000  C
  H39      1.0000 0.87440  0.04330  0.57580  Biso   1.000  H
  C41      1.0000 0.91930  0.95310  0.64240  Biso   1.000  C
  H40      1.0000 0.96030  0.95870  0.59760  Biso   1.000  H
  C42      1.0000 0.62750  0.23480  0.89780  Biso   1.000  C
  H41      1.0000 0.62560  0.26050  0.98150  Biso   1.000  H
  C43      1.0000 0.68100  0.18450  0.91210  Biso   1.000  C
  H42      1.0000 0.71450  0.17760  0.00280  Biso   1.000  H
  C44      1.0000 0.68450  0.14400  0.78980  Biso   1.000  C
  C45      1.0000 0.63160  0.15710  0.65950  Biso   1.000  C
  H43      1.0000 0.63050  0.13070  0.57540  Biso   1.000  H
  C46      1.0000 0.58040  0.20930  0.65500  Biso   1.000  C
  H44      1.0000 0.54560  0.21740  0.56640  Biso   1.000  H
  C47      1.0000 0.74530  0.09140  0.80430  Biso   1.000  C
  H45      1.0000 0.74060  0.06050  0.88360  Biso   1.000  H
  H46      1.0000 0.79420  0.11330  0.83270  Biso   1.000  H
  C48      1.0000 0.74290  0.05110  0.66340  Biso   1.000  C
  H47      1.0000 0.75000  0.08150  0.58480  Biso   1.000  H
  H48      1.0000 0.69360  0.03020  0.63250  Biso   1.000  H
  Cu1      1.0000 0.50000  0.32394  0.75000  Biso   1.000  Cu
  Cu2      1.0000 0.00000  0.82394  0.75000  Biso   1.000  Cu
  N9       1.0000 0.41580  0.60450  0.21840  Biso   1.000  N
  N10      1.0000 0.07860  0.25100  0.27270  Biso   1.000  N
  C49      1.0000 0.35370  0.61200  0.27630  Biso   1.000  C
  H49      1.0000 0.34900  0.65070  0.33080  Biso   1.000  H
  C50      1.0000 0.29710  0.56380  0.25690  Biso   1.000  C
  H50      1.0000 0.25360  0.57210  0.29260  Biso   1.000  H
  C51      1.0000 0.30400  0.50380  0.18550  Biso   1.000  C
  C52      1.0000 0.36730  0.49610  0.12620  Biso   1.000  C
  H51      1.0000 0.37440  0.45670  0.07580  Biso   1.000  H
  C53      1.0000 0.41930  0.54690  0.14240  Biso   1.000  C
  H52      1.0000 0.46030  0.54130  0.09760  Biso   1.000  H
  C54      1.0000 0.12750  0.26520  0.39780  Biso   1.000  C
  H53      1.0000 0.12560  0.23950  0.48150  Biso   1.000  H
  C55      1.0000 0.18100  0.31550  0.41210  Biso   1.000  C
  H54      1.0000 0.21450  0.32240  0.50280  Biso   1.000  H
  C56      1.0000 0.18450  0.35600  0.28980  Biso   1.000  C
  C57      1.0000 0.13160  0.34290  0.15950  Biso   1.000  C
  H55      1.0000 0.13050  0.36930  0.07540  Biso   1.000  H
  C58      1.0000 0.08040  0.29070  0.15500  Biso   1.000  C
  H56      1.0000 0.04560  0.28260  0.06640  Biso   1.000  H
  C59      1.0000 0.24530  0.40860  0.30430  Biso   1.000  C
  H57      1.0000 0.24060  0.43950  0.38360  Biso   1.000  H
  H58      1.0000 0.29420  0.38670  0.33270  Biso   1.000  H
  C60      1.0000 0.24290  0.44890  0.16340  Biso   1.000  C
  H59      1.0000 0.25000  0.41850  0.08480  Biso   1.000  H
  H60      1.0000 0.19360  0.46980  0.13250  Biso   1.000  H
  N11      1.0000 0.91580  0.10450  0.21840  Biso   1.000  N
  N12      1.0000 0.57860  0.75100  0.27270  Biso   1.000  N
  C61      1.0000 0.85370  0.11200  0.27630  Biso   1.000  C
  H61      1.0000 0.84900  0.15070  0.33080  Biso   1.000  H
  C62      1.0000 0.79710  0.06380  0.25690  Biso   1.000  C
  H62      1.0000 0.75360  0.07210  0.29260  Biso   1.000  H
  C63      1.0000 0.80400  0.00380  0.18550  Biso   1.000  C
  C64      1.0000 0.86730  0.99610  0.12620  Biso   1.000  C
  H63      1.0000 0.87440  0.95670  0.07580  Biso   1.000  H
  C65      1.0000 0.91930  0.04690  0.14240  Biso   1.000  C
  H64      1.0000 0.96030  0.04130  0.09760  Biso   1.000  H
  C66      1.0000 0.62750  0.76520  0.39780  Biso   1.000  C
  H65      1.0000 0.62560  0.73950  0.48150  Biso   1.000  H
  C67      1.0000 0.68100  0.81550  0.41210  Biso   1.000  C
  H66      1.0000 0.71450  0.82240  0.50280  Biso   1.000  H
  C68      1.0000 0.68450  0.85600  0.28980  Biso   1.000  C
  C69      1.0000 0.63160  0.84290  0.15950  Biso   1.000  C
  H67      1.0000 0.63050  0.86930  0.07540  Biso   1.000  H
  C70      1.0000 0.58040  0.79070  0.15500  Biso   1.000  C
  H68      1.0000 0.54560  0.78260  0.06640  Biso   1.000  H
  C71      1.0000 0.74530  0.90860  0.30430  Biso   1.000  C
  H69      1.0000 0.74060  0.93950  0.38360  Biso   1.000  H
  H70      1.0000 0.79420  0.88670  0.33270  Biso   1.000  H
  C72      1.0000 0.74290  0.94890  0.16340  Biso   1.000  C
  H71      1.0000 0.75000  0.91850  0.08480  Biso   1.000  H
  H72      1.0000 0.69360  0.96980  0.13250  Biso   1.000  H
  N13      1.0000 0.58420  0.60450  0.28160  Biso   1.000  N
  N14      1.0000 0.92140  0.25100  0.22730  Biso   1.000  N
  C73      1.0000 0.64630  0.61200  0.22370  Biso   1.000  C
  H73      1.0000 0.65100  0.65070  0.16920  Biso   1.000  H
  C74      1.0000 0.70290  0.56380  0.24310  Biso   1.000  C
  H74      1.0000 0.74640  0.57210  0.20740  Biso   1.000  H
  C75      1.0000 0.69600  0.50380  0.31450  Biso   1.000  C
  C76      1.0000 0.63270  0.49610  0.37380  Biso   1.000  C
  H75      1.0000 0.62560  0.45670  0.42420  Biso   1.000  H
  C77      1.0000 0.58070  0.54690  0.35760  Biso   1.000  C
  H76      1.0000 0.53970  0.54130  0.40240  Biso   1.000  H
  C78      1.0000 0.87250  0.26520  0.10220  Biso   1.000  C
  H77      1.0000 0.87440  0.23950  0.01850  Biso   1.000  H
  C79      1.0000 0.81900  0.31550  0.08790  Biso   1.000  C
  H78      1.0000 0.78550  0.32240  0.99720  Biso   1.000  H
  C80      1.0000 0.81550  0.35600  0.21020  Biso   1.000  C
  C81      1.0000 0.86840  0.34290  0.34050  Biso   1.000  C
  H79      1.0000 0.86950  0.36930  0.42460  Biso   1.000  H
  C82      1.0000 0.91960  0.29070  0.34500  Biso   1.000  C
  H80      1.0000 0.95440  0.28260  0.43360  Biso   1.000  H
  C83      1.0000 0.75470  0.40860  0.19570  Biso   1.000  C
  H81      1.0000 0.75940  0.43950  0.11640  Biso   1.000  H
  H82      1.0000 0.70580  0.38670  0.16730  Biso   1.000  H
  C84      1.0000 0.75710  0.44890  0.33660  Biso   1.000  C
  H83      1.0000 0.75000  0.41850  0.41520  Biso   1.000  H
  H84      1.0000 0.80640  0.46980  0.36750  Biso   1.000  H
  N15      1.0000 0.08420  0.10450  0.28160  Biso   1.000  N
  N16      1.0000 0.42140  0.75100  0.22730  Biso   1.000  N
  C85      1.0000 0.14630  0.11200  0.22370  Biso   1.000  C
  H85      1.0000 0.15100  0.15070  0.16920  Biso   1.000  H
  C86      1.0000 0.20290  0.06380  0.24310  Biso   1.000  C
  H86      1.0000 0.24640  0.07210  0.20740  Biso   1.000  H
  C87      1.0000 0.19600  0.00380  0.31450  Biso   1.000  C
  C88      1.0000 0.13270  0.99610  0.37380  Biso   1.000  C
  H87      1.0000 0.12560  0.95670  0.42420  Biso   1.000  H
  C89      1.0000 0.08070  0.04690  0.35760  Biso   1.000  C
  H88      1.0000 0.03970  0.04130  0.40240  Biso   1.000  H
  C90      1.0000 0.37250  0.76520  0.10220  Biso   1.000  C
  H89      1.0000 0.37440  0.73950  0.01850  Biso   1.000  H
  C91      1.0000 0.31900  0.81550  0.08790  Biso   1.000  C
  H90      1.0000 0.28550  0.82240  0.99720  Biso   1.000  H
  C92      1.0000 0.31550  0.85600  0.21020  Biso   1.000  C
  C93      1.0000 0.36840  0.84290  0.34050  Biso   1.000  C
  H91      1.0000 0.36950  0.86930  0.42460  Biso   1.000  H
  C94      1.0000 0.41960  0.79070  0.34500  Biso   1.000  C
  H92      1.0000 0.45440  0.78260  0.43360  Biso   1.000  H
  C95      1.0000 0.25470  0.90860  0.19570  Biso   1.000  C
  H93      1.0000 0.25940  0.93950  0.11640  Biso   1.000  H
  H94      1.0000 0.20580  0.88670  0.16730  Biso   1.000  H
  C96      1.0000 0.25710  0.94890  0.33660  Biso   1.000  C
  H95      1.0000 0.25000  0.91850  0.41520  Biso   1.000  H
  H96      1.0000 0.30640  0.96980  0.36750  Biso   1.000  H
  Cu3      1.0000 0.50000  0.67606  0.25000  Biso   1.000  Cu
  Cu4      1.0000 0.00000  0.17606  0.25000  Biso   1.000  Cu
