data_image0
_cell_length_a       27.328
_cell_length_b       32.125
_cell_length_c       18.424
_cell_angle_alpha    90
_cell_angle_beta     90
_cell_angle_gamma    90

_symmetry_space_group_name_H-M    "P 1"
_symmetry_int_tables_number       1

loop_
  _symmetry_equiv_pos_as_xyz
  'x, y, z'

loop_
  _atom_site_label
  _atom_site_occupancy
  _atom_site_fract_x
  _atom_site_fract_y
  _atom_site_fract_z
  _atom_site_thermal_displace_type
  _atom_site_B_iso_or_equiv
  _atom_site_type_symbol
  Fe1      1.0000 0.19276  0.08050  0.20407  Biso   1.000  Fe
  Cl1      1.0000 0.15039  0.05348  0.29853  Biso   1.000  Cl
  O1       1.0000 0.22170  0.02440  0.18010  Biso   1.000  O
  O2       1.0000 0.23410  0.09430  0.11080  Biso   1.000  O
  O3       1.0000 0.27200  0.99110  0.10330  Biso   1.000  O
  O4       1.0000 0.29280  0.06600  0.04320  Biso   1.000  O
  C1       1.0000 0.25160  0.02290  0.12770  Biso   1.000  C
  C2       1.0000 0.26160  0.06470  0.08940  Biso   1.000  C
  O5       1.0000 0.10150  0.17370  0.14770  Biso   1.000  O
  O6       1.0000 0.07480  0.10590  0.07650  Biso   1.000  O
  O7       1.0000 0.16260  0.13890  0.19890  Biso   1.000  O
  O8       1.0000 0.13510  0.07110  0.12970  Biso   1.000  O
  C3       1.0000 0.12570  0.14210  0.15880  Biso   1.000  C
  C4       1.0000 0.11110  0.10280  0.11870  Biso   1.000  C
  O9       1.0000 0.24420  0.10580  0.26120  Biso   1.000  O
  Fe2      1.0000 0.69276  0.08050  0.70407  Biso   1.000  Fe
  Cl2      1.0000 0.65039  0.05348  0.79853  Biso   1.000  Cl
  O10      1.0000 0.72170  0.02440  0.68010  Biso   1.000  O
  O11      1.0000 0.73410  0.09430  0.61080  Biso   1.000  O
  O12      1.0000 0.77200  0.99110  0.60330  Biso   1.000  O
  O13      1.0000 0.79280  0.06600  0.54320  Biso   1.000  O
  C5       1.0000 0.75160  0.02290  0.62770  Biso   1.000  C
  C6       1.0000 0.76160  0.06470  0.58940  Biso   1.000  C
  O14      1.0000 0.60150  0.17370  0.64770  Biso   1.000  O
  O15      1.0000 0.57480  0.10590  0.57650  Biso   1.000  O
  O16      1.0000 0.66260  0.13890  0.69890  Biso   1.000  O
  O17      1.0000 0.63510  0.07110  0.62970  Biso   1.000  O
  C7       1.0000 0.62570  0.14210  0.65880  Biso   1.000  C
  C8       1.0000 0.61110  0.10280  0.61870  Biso   1.000  C
  O18      1.0000 0.74420  0.10580  0.76120  Biso   1.000  O
  Fe3      1.0000 0.79565  0.08500  0.82276  Biso   1.000  Fe
  Cl3      1.0000 0.84200  0.06084  0.72870  Biso   1.000  Cl
  O19      1.0000 0.77200  0.02730  0.84520  Biso   1.000  O
  O20      1.0000 0.75270  0.09720  0.91210  Biso   1.000  O
  O21      1.0000 0.72480  0.99270  0.92460  Biso   1.000  O
  O22      1.0000 0.69860  0.06560  0.98480  Biso   1.000  O
  C9       1.0000 0.74330  0.02510  0.90060  Biso   1.000  C
  C10      1.0000 0.72980  0.06580  0.93510  Biso   1.000  C
  Fe4      1.0000 0.29565  0.08500  0.32276  Biso   1.000  Fe
  Cl4      1.0000 0.34200  0.06084  0.22870  Biso   1.000  Cl
  O23      1.0000 0.27200  0.02730  0.34520  Biso   1.000  O
  O24      1.0000 0.25270  0.09720  0.41210  Biso   1.000  O
  O25      1.0000 0.22480  0.99270  0.42460  Biso   1.000  O
  O26      1.0000 0.19860  0.06560  0.48480  Biso   1.000  O
  C11      1.0000 0.24330  0.02510  0.40060  Biso   1.000  C
  C12      1.0000 0.22980  0.06580  0.43510  Biso   1.000  C
  Fe5      1.0000 0.44276  0.16950  0.45407  Biso   1.000  Fe
  Cl5      1.0000 0.40039  0.19652  0.54853  Biso   1.000  Cl
  O27      1.0000 0.47170  0.22560  0.43010  Biso   1.000  O
  O28      1.0000 0.48410  0.15570  0.36080  Biso   1.000  O
  O29      1.0000 0.52200  0.25890  0.35330  Biso   1.000  O
  O30      1.0000 0.54280  0.18400  0.29320  Biso   1.000  O
  C13      1.0000 0.50160  0.22710  0.37770  Biso   1.000  C
  C14      1.0000 0.51160  0.18530  0.33940  Biso   1.000  C
  O31      1.0000 0.35150  0.07630  0.39770  Biso   1.000  O
  O32      1.0000 0.32480  0.14410  0.32650  Biso   1.000  O
  O33      1.0000 0.41260  0.11110  0.44890  Biso   1.000  O
  O34      1.0000 0.38510  0.17890  0.37970  Biso   1.000  O
  C15      1.0000 0.37570  0.10790  0.40880  Biso   1.000  C
  C16      1.0000 0.36110  0.14720  0.36870  Biso   1.000  C
  O35      1.0000 0.49420  0.14420  0.51120  Biso   1.000  O
  Fe6      1.0000 0.94276  0.16950  0.95407  Biso   1.000  Fe
  Cl6      1.0000 0.90039  0.19652  0.04853  Biso   1.000  Cl
  O36      1.0000 0.97170  0.22560  0.93010  Biso   1.000  O
  O37      1.0000 0.98410  0.15570  0.86080  Biso   1.000  O
  O38      1.0000 0.02200  0.25890  0.85330  Biso   1.000  O
  O39      1.0000 0.04280  0.18400  0.79320  Biso   1.000  O
  C17      1.0000 0.00160  0.22710  0.87770  Biso   1.000  C
  C18      1.0000 0.01160  0.18530  0.83940  Biso   1.000  C
  O40      1.0000 0.85150  0.07630  0.89770  Biso   1.000  O
  O41      1.0000 0.82480  0.14410  0.82650  Biso   1.000  O
  O42      1.0000 0.91260  0.11110  0.94890  Biso   1.000  O
  O43      1.0000 0.88510  0.17890  0.87970  Biso   1.000  O
  C19      1.0000 0.87570  0.10790  0.90880  Biso   1.000  C
  C20      1.0000 0.86110  0.14720  0.86870  Biso   1.000  C
  O44      1.0000 0.99420  0.14420  0.01120  Biso   1.000  O
  Fe7      1.0000 0.04565  0.16500  0.07276  Biso   1.000  Fe
  Cl7      1.0000 0.09200  0.18916  0.97870  Biso   1.000  Cl
  O45      1.0000 0.02200  0.22270  0.09520  Biso   1.000  O
  O46      1.0000 0.00270  0.15280  0.16210  Biso   1.000  O
  O47      1.0000 0.97480  0.25730  0.17460  Biso   1.000  O
  O48      1.0000 0.94860  0.18440  0.23480  Biso   1.000  O
  C21      1.0000 0.99330  0.22490  0.15060  Biso   1.000  C
  C22      1.0000 0.97980  0.18420  0.18510  Biso   1.000  C
  Fe8      1.0000 0.54565  0.16500  0.57276  Biso   1.000  Fe
  Cl8      1.0000 0.59200  0.18916  0.47870  Biso   1.000  Cl
  O49      1.0000 0.52200  0.22270  0.59520  Biso   1.000  O
  O50      1.0000 0.50270  0.15280  0.66210  Biso   1.000  O
  O51      1.0000 0.47480  0.25730  0.67460  Biso   1.000  O
  O52      1.0000 0.44860  0.18440  0.73480  Biso   1.000  O
  C23      1.0000 0.49330  0.22490  0.65060  Biso   1.000  C
  C24      1.0000 0.47980  0.18420  0.68510  Biso   1.000  C
  Fe9      1.0000 0.20435  0.91500  0.82276  Biso   1.000  Fe
  Cl9      1.0000 0.15800  0.93916  0.72870  Biso   1.000  Cl
  O53      1.0000 0.22800  0.97270  0.84520  Biso   1.000  O
  O54      1.0000 0.24730  0.90280  0.91210  Biso   1.000  O
  O55      1.0000 0.27520  0.00730  0.92460  Biso   1.000  O
  O56      1.0000 0.30140  0.93440  0.98480  Biso   1.000  O
  C25      1.0000 0.25670  0.97490  0.90060  Biso   1.000  C
  C26      1.0000 0.27020  0.93420  0.93510  Biso   1.000  C
  Fe10     1.0000 0.70435  0.91500  0.32276  Biso   1.000  Fe
  Cl10     1.0000 0.65800  0.93916  0.22870  Biso   1.000  Cl
  O57      1.0000 0.72800  0.97270  0.34520  Biso   1.000  O
  O58      1.0000 0.74730  0.90280  0.41210  Biso   1.000  O
  O59      1.0000 0.77520  0.00730  0.42460  Biso   1.000  O
  O60      1.0000 0.80140  0.93440  0.48480  Biso   1.000  O
  C27      1.0000 0.75670  0.97490  0.40060  Biso   1.000  C
  C28      1.0000 0.77020  0.93420  0.43510  Biso   1.000  C
  Fe11     1.0000 0.80724  0.91950  0.20407  Biso   1.000  Fe
  Cl11     1.0000 0.84961  0.94652  0.29853  Biso   1.000  Cl
  O61      1.0000 0.77830  0.97560  0.18010  Biso   1.000  O
  O62      1.0000 0.76590  0.90570  0.11080  Biso   1.000  O
  O63      1.0000 0.72800  0.00890  0.10330  Biso   1.000  O
  O64      1.0000 0.70720  0.93400  0.04320  Biso   1.000  O
  C29      1.0000 0.74840  0.97710  0.12770  Biso   1.000  C
  C30      1.0000 0.73840  0.93530  0.08940  Biso   1.000  C
  O65      1.0000 0.89850  0.82630  0.14770  Biso   1.000  O
  O66      1.0000 0.92520  0.89410  0.07650  Biso   1.000  O
  O67      1.0000 0.83740  0.86110  0.19890  Biso   1.000  O
  O68      1.0000 0.86490  0.92890  0.12970  Biso   1.000  O
  C31      1.0000 0.87430  0.85790  0.15880  Biso   1.000  C
  C32      1.0000 0.88890  0.89720  0.11870  Biso   1.000  C
  O69      1.0000 0.75580  0.89420  0.26120  Biso   1.000  O
  Fe12     1.0000 0.30724  0.91950  0.70407  Biso   1.000  Fe
  Cl12     1.0000 0.34961  0.94652  0.79853  Biso   1.000  Cl
  O70      1.0000 0.27830  0.97560  0.68010  Biso   1.000  O
  O71      1.0000 0.26590  0.90570  0.61080  Biso   1.000  O
  O72      1.0000 0.22800  0.00890  0.60330  Biso   1.000  O
  O73      1.0000 0.20720  0.93400  0.54320  Biso   1.000  O
  C33      1.0000 0.24840  0.97710  0.62770  Biso   1.000  C
  C34      1.0000 0.23840  0.93530  0.58940  Biso   1.000  C
  O74      1.0000 0.39850  0.82630  0.64770  Biso   1.000  O
  O75      1.0000 0.42520  0.89410  0.57650  Biso   1.000  O
  O76      1.0000 0.33740  0.86110  0.69890  Biso   1.000  O
  O77      1.0000 0.36490  0.92890  0.62970  Biso   1.000  O
  C35      1.0000 0.37430  0.85790  0.65880  Biso   1.000  C
  C36      1.0000 0.38890  0.89720  0.61870  Biso   1.000  C
  O78      1.0000 0.25580  0.89420  0.76120  Biso   1.000  O
  Fe13     1.0000 0.45435  0.83500  0.57276  Biso   1.000  Fe
  Cl13     1.0000 0.40800  0.81084  0.47870  Biso   1.000  Cl
  O79      1.0000 0.47800  0.77730  0.59520  Biso   1.000  O
  O80      1.0000 0.49730  0.84720  0.66210  Biso   1.000  O
  O81      1.0000 0.52520  0.74270  0.67460  Biso   1.000  O
  O82      1.0000 0.55140  0.81560  0.73480  Biso   1.000  O
  C37      1.0000 0.50670  0.77510  0.65060  Biso   1.000  C
  C38      1.0000 0.52020  0.81580  0.68510  Biso   1.000  C
  Fe14     1.0000 0.95435  0.83500  0.07276  Biso   1.000  Fe
  Cl14     1.0000 0.90800  0.81084  0.97870  Biso   1.000  Cl
  O83      1.0000 0.97800  0.77730  0.09520  Biso   1.000  O
  O84      1.0000 0.99730  0.84720  0.16210  Biso   1.000  O
  O85      1.0000 0.02520  0.74270  0.17460  Biso   1.000  O
  O86      1.0000 0.05140  0.81560  0.23480  Biso   1.000  O
  C39      1.0000 0.00670  0.77510  0.15060  Biso   1.000  C
  C40      1.0000 0.02020  0.81580  0.18510  Biso   1.000  C
  Fe15     1.0000 0.05724  0.83050  0.95407  Biso   1.000  Fe
  Cl15     1.0000 0.09961  0.80348  0.04853  Biso   1.000  Cl
  O87      1.0000 0.02830  0.77440  0.93010  Biso   1.000  O
  O88      1.0000 0.01590  0.84430  0.86080  Biso   1.000  O
  O89      1.0000 0.97800  0.74110  0.85330  Biso   1.000  O
  O90      1.0000 0.95720  0.81600  0.79320  Biso   1.000  O
  C41      1.0000 0.99840  0.77290  0.87770  Biso   1.000  C
  C42      1.0000 0.98840  0.81470  0.83940  Biso   1.000  C
  O91      1.0000 0.14850  0.92370  0.89770  Biso   1.000  O
  O92      1.0000 0.17520  0.85590  0.82650  Biso   1.000  O
  O93      1.0000 0.08740  0.88890  0.94890  Biso   1.000  O
  O94      1.0000 0.11490  0.82110  0.87970  Biso   1.000  O
  C43      1.0000 0.12430  0.89210  0.90880  Biso   1.000  C
  C44      1.0000 0.13890  0.85280  0.86870  Biso   1.000  C
  O95      1.0000 0.00580  0.85580  0.01120  Biso   1.000  O
  Fe16     1.0000 0.55724  0.83050  0.45407  Biso   1.000  Fe
  Cl16     1.0000 0.59961  0.80348  0.54853  Biso   1.000  Cl
  O96      1.0000 0.52830  0.77440  0.43010  Biso   1.000  O
  O97      1.0000 0.51590  0.84430  0.36080  Biso   1.000  O
  O98      1.0000 0.47800  0.74110  0.35330  Biso   1.000  O
  O99      1.0000 0.45720  0.81600  0.29320  Biso   1.000  O
  C45      1.0000 0.49840  0.77290  0.37770  Biso   1.000  C
  C46      1.0000 0.48840  0.81470  0.33940  Biso   1.000  C
  O100     1.0000 0.64850  0.92370  0.39770  Biso   1.000  O
  O101     1.0000 0.67520  0.85590  0.32650  Biso   1.000  O
  O102     1.0000 0.58740  0.88890  0.44890  Biso   1.000  O
  O103     1.0000 0.61490  0.82110  0.37970  Biso   1.000  O
  C47      1.0000 0.62430  0.89210  0.40880  Biso   1.000  C
  C48      1.0000 0.63890  0.85280  0.36870  Biso   1.000  C
  O104     1.0000 0.50580  0.85580  0.51120  Biso   1.000  O
  Fe17     1.0000 0.19276  0.58050  0.70407  Biso   1.000  Fe
  Cl17     1.0000 0.15039  0.55348  0.79853  Biso   1.000  Cl
  O105     1.0000 0.22170  0.52440  0.68010  Biso   1.000  O
  O106     1.0000 0.23410  0.59430  0.61080  Biso   1.000  O
  O107     1.0000 0.27200  0.49110  0.60330  Biso   1.000  O
  O108     1.0000 0.29280  0.56600  0.54320  Biso   1.000  O
  C49      1.0000 0.25160  0.52290  0.62770  Biso   1.000  C
  C50      1.0000 0.26160  0.56470  0.58940  Biso   1.000  C
  O109     1.0000 0.10150  0.67370  0.64770  Biso   1.000  O
  O110     1.0000 0.07480  0.60590  0.57650  Biso   1.000  O
  O111     1.0000 0.16260  0.63890  0.69890  Biso   1.000  O
  O112     1.0000 0.13510  0.57110  0.62970  Biso   1.000  O
  C51      1.0000 0.12570  0.64210  0.65880  Biso   1.000  C
  C52      1.0000 0.11110  0.60280  0.61870  Biso   1.000  C
  O113     1.0000 0.24420  0.60580  0.76120  Biso   1.000  O
  Fe18     1.0000 0.69276  0.58050  0.20407  Biso   1.000  Fe
  Cl18     1.0000 0.65039  0.55348  0.29853  Biso   1.000  Cl
  O114     1.0000 0.72170  0.52440  0.18010  Biso   1.000  O
  O115     1.0000 0.73410  0.59430  0.11080  Biso   1.000  O
  O116     1.0000 0.77200  0.49110  0.10330  Biso   1.000  O
  O117     1.0000 0.79280  0.56600  0.04320  Biso   1.000  O
  C53      1.0000 0.75160  0.52290  0.12770  Biso   1.000  C
  C54      1.0000 0.76160  0.56470  0.08940  Biso   1.000  C
  O118     1.0000 0.60150  0.67370  0.14770  Biso   1.000  O
  O119     1.0000 0.57480  0.60590  0.07650  Biso   1.000  O
  O120     1.0000 0.66260  0.63890  0.19890  Biso   1.000  O
  O121     1.0000 0.63510  0.57110  0.12970  Biso   1.000  O
  C55      1.0000 0.62570  0.64210  0.15880  Biso   1.000  C
  C56      1.0000 0.61110  0.60280  0.11870  Biso   1.000  C
  O122     1.0000 0.74420  0.60580  0.26120  Biso   1.000  O
  Fe19     1.0000 0.79565  0.58500  0.32276  Biso   1.000  Fe
  Cl19     1.0000 0.84200  0.56084  0.22870  Biso   1.000  Cl
  O123     1.0000 0.77200  0.52730  0.34520  Biso   1.000  O
  O124     1.0000 0.75270  0.59720  0.41210  Biso   1.000  O
  O125     1.0000 0.72480  0.49270  0.42460  Biso   1.000  O
  O126     1.0000 0.69860  0.56560  0.48480  Biso   1.000  O
  C57      1.0000 0.74330  0.52510  0.40060  Biso   1.000  C
  C58      1.0000 0.72980  0.56580  0.43510  Biso   1.000  C
  Fe20     1.0000 0.29565  0.58500  0.82276  Biso   1.000  Fe
  Cl20     1.0000 0.34200  0.56084  0.72870  Biso   1.000  Cl
  O127     1.0000 0.27200  0.52730  0.84520  Biso   1.000  O
  O128     1.0000 0.25270  0.59720  0.91210  Biso   1.000  O
  O129     1.0000 0.22480  0.49270  0.92460  Biso   1.000  O
  O130     1.0000 0.19860  0.56560  0.98480  Biso   1.000  O
  C59      1.0000 0.24330  0.52510  0.90060  Biso   1.000  C
  C60      1.0000 0.22980  0.56580  0.93510  Biso   1.000  C
  Fe21     1.0000 0.44276  0.66950  0.95407  Biso   1.000  Fe
  Cl21     1.0000 0.40039  0.69652  0.04853  Biso   1.000  Cl
  O131     1.0000 0.47170  0.72560  0.93010  Biso   1.000  O
  O132     1.0000 0.48410  0.65570  0.86080  Biso   1.000  O
  O133     1.0000 0.52200  0.75890  0.85330  Biso   1.000  O
  O134     1.0000 0.54280  0.68400  0.79320  Biso   1.000  O
  C61      1.0000 0.50160  0.72710  0.87770  Biso   1.000  C
  C62      1.0000 0.51160  0.68530  0.83940  Biso   1.000  C
  O135     1.0000 0.35150  0.57630  0.89770  Biso   1.000  O
  O136     1.0000 0.32480  0.64410  0.82650  Biso   1.000  O
  O137     1.0000 0.41260  0.61110  0.94890  Biso   1.000  O
  O138     1.0000 0.38510  0.67890  0.87970  Biso   1.000  O
  C63      1.0000 0.37570  0.60790  0.90880  Biso   1.000  C
  C64      1.0000 0.36110  0.64720  0.86870  Biso   1.000  C
  O139     1.0000 0.49420  0.64420  0.01120  Biso   1.000  O
  Fe22     1.0000 0.94276  0.66950  0.45407  Biso   1.000  Fe
  Cl22     1.0000 0.90039  0.69652  0.54853  Biso   1.000  Cl
  O140     1.0000 0.97170  0.72560  0.43010  Biso   1.000  O
  O141     1.0000 0.98410  0.65570  0.36080  Biso   1.000  O
  O142     1.0000 0.02200  0.75890  0.35330  Biso   1.000  O
  O143     1.0000 0.04280  0.68400  0.29320  Biso   1.000  O
  C65      1.0000 0.00160  0.72710  0.37770  Biso   1.000  C
  C66      1.0000 0.01160  0.68530  0.33940  Biso   1.000  C
  O144     1.0000 0.85150  0.57630  0.39770  Biso   1.000  O
  O145     1.0000 0.82480  0.64410  0.32650  Biso   1.000  O
  O146     1.0000 0.91260  0.61110  0.44890  Biso   1.000  O
  O147     1.0000 0.88510  0.67890  0.37970  Biso   1.000  O
  C67      1.0000 0.87570  0.60790  0.40880  Biso   1.000  C
  C68      1.0000 0.86110  0.64720  0.36870  Biso   1.000  C
  O148     1.0000 0.99420  0.64420  0.51120  Biso   1.000  O
  Fe23     1.0000 0.04565  0.66500  0.57276  Biso   1.000  Fe
  Cl23     1.0000 0.09200  0.68916  0.47870  Biso   1.000  Cl
  O149     1.0000 0.02200  0.72270  0.59520  Biso   1.000  O
  O150     1.0000 0.00270  0.65280  0.66210  Biso   1.000  O
  O151     1.0000 0.97480  0.75730  0.67460  Biso   1.000  O
  O152     1.0000 0.94860  0.68440  0.73480  Biso   1.000  O
  C69      1.0000 0.99330  0.72490  0.65060  Biso   1.000  C
  C70      1.0000 0.97980  0.68420  0.68510  Biso   1.000  C
  Fe24     1.0000 0.54565  0.66500  0.07276  Biso   1.000  Fe
  Cl24     1.0000 0.59200  0.68916  0.97870  Biso   1.000  Cl
  O153     1.0000 0.52200  0.72270  0.09520  Biso   1.000  O
  O154     1.0000 0.50270  0.65280  0.16210  Biso   1.000  O
  O155     1.0000 0.47480  0.75730  0.17460  Biso   1.000  O
  O156     1.0000 0.44860  0.68440  0.23480  Biso   1.000  O
  C71      1.0000 0.49330  0.72490  0.15060  Biso   1.000  C
  C72      1.0000 0.47980  0.68420  0.18510  Biso   1.000  C
  Fe25     1.0000 0.20435  0.41500  0.32276  Biso   1.000  Fe
  Cl25     1.0000 0.15800  0.43916  0.22870  Biso   1.000  Cl
  O157     1.0000 0.22800  0.47270  0.34520  Biso   1.000  O
  O158     1.0000 0.24730  0.40280  0.41210  Biso   1.000  O
  O159     1.0000 0.27520  0.50730  0.42460  Biso   1.000  O
  O160     1.0000 0.30140  0.43440  0.48480  Biso   1.000  O
  C73      1.0000 0.25670  0.47490  0.40060  Biso   1.000  C
  C74      1.0000 0.27020  0.43420  0.43510  Biso   1.000  C
  Fe26     1.0000 0.70435  0.41500  0.82276  Biso   1.000  Fe
  Cl26     1.0000 0.65800  0.43916  0.72870  Biso   1.000  Cl
  O161     1.0000 0.72800  0.47270  0.84520  Biso   1.000  O
  O162     1.0000 0.74730  0.40280  0.91210  Biso   1.000  O
  O163     1.0000 0.77520  0.50730  0.92460  Biso   1.000  O
  O164     1.0000 0.80140  0.43440  0.98480  Biso   1.000  O
  C75      1.0000 0.75670  0.47490  0.90060  Biso   1.000  C
  C76      1.0000 0.77020  0.43420  0.93510  Biso   1.000  C
  Fe27     1.0000 0.80724  0.41950  0.70407  Biso   1.000  Fe
  Cl27     1.0000 0.84961  0.44652  0.79853  Biso   1.000  Cl
  O165     1.0000 0.77830  0.47560  0.68010  Biso   1.000  O
  O166     1.0000 0.76590  0.40570  0.61080  Biso   1.000  O
  O167     1.0000 0.72800  0.50890  0.60330  Biso   1.000  O
  O168     1.0000 0.70720  0.43400  0.54320  Biso   1.000  O
  C77      1.0000 0.74840  0.47710  0.62770  Biso   1.000  C
  C78      1.0000 0.73840  0.43530  0.58940  Biso   1.000  C
  O169     1.0000 0.89850  0.32630  0.64770  Biso   1.000  O
  O170     1.0000 0.92520  0.39410  0.57650  Biso   1.000  O
  O171     1.0000 0.83740  0.36110  0.69890  Biso   1.000  O
  O172     1.0000 0.86490  0.42890  0.62970  Biso   1.000  O
  C79      1.0000 0.87430  0.35790  0.65880  Biso   1.000  C
  C80      1.0000 0.88890  0.39720  0.61870  Biso   1.000  C
  O173     1.0000 0.75580  0.39420  0.76120  Biso   1.000  O
  Fe28     1.0000 0.30724  0.41950  0.20407  Biso   1.000  Fe
  Cl28     1.0000 0.34961  0.44652  0.29853  Biso   1.000  Cl
  O174     1.0000 0.27830  0.47560  0.18010  Biso   1.000  O
  O175     1.0000 0.26590  0.40570  0.11080  Biso   1.000  O
  O176     1.0000 0.22800  0.50890  0.10330  Biso   1.000  O
  O177     1.0000 0.20720  0.43400  0.04320  Biso   1.000  O
  C81      1.0000 0.24840  0.47710  0.12770  Biso   1.000  C
  C82      1.0000 0.23840  0.43530  0.08940  Biso   1.000  C
  O178     1.0000 0.39850  0.32630  0.14770  Biso   1.000  O
  O179     1.0000 0.42520  0.39410  0.07650  Biso   1.000  O
  O180     1.0000 0.33740  0.36110  0.19890  Biso   1.000  O
  O181     1.0000 0.36490  0.42890  0.12970  Biso   1.000  O
  C83      1.0000 0.37430  0.35790  0.15880  Biso   1.000  C
  C84      1.0000 0.38890  0.39720  0.11870  Biso   1.000  C
  O182     1.0000 0.25580  0.39420  0.26120  Biso   1.000  O
  Fe29     1.0000 0.45435  0.33500  0.07276  Biso   1.000  Fe
  Cl29     1.0000 0.40800  0.31084  0.97870  Biso   1.000  Cl
  O183     1.0000 0.47800  0.27730  0.09520  Biso   1.000  O
  O184     1.0000 0.49730  0.34720  0.16210  Biso   1.000  O
  O185     1.0000 0.52520  0.24270  0.17460  Biso   1.000  O
  O186     1.0000 0.55140  0.31560  0.23480  Biso   1.000  O
  C85      1.0000 0.50670  0.27510  0.15060  Biso   1.000  C
  C86      1.0000 0.52020  0.31580  0.18510  Biso   1.000  C
  Fe30     1.0000 0.95435  0.33500  0.57276  Biso   1.000  Fe
  Cl30     1.0000 0.90800  0.31084  0.47870  Biso   1.000  Cl
  O187     1.0000 0.97800  0.27730  0.59520  Biso   1.000  O
  O188     1.0000 0.99730  0.34720  0.66210  Biso   1.000  O
  O189     1.0000 0.02520  0.24270  0.67460  Biso   1.000  O
  O190     1.0000 0.05140  0.31560  0.73480  Biso   1.000  O
  C87      1.0000 0.00670  0.27510  0.65060  Biso   1.000  C
  C88      1.0000 0.02020  0.31580  0.68510  Biso   1.000  C
  Fe31     1.0000 0.05724  0.33050  0.45407  Biso   1.000  Fe
  Cl31     1.0000 0.09961  0.30348  0.54853  Biso   1.000  Cl
  O191     1.0000 0.02830  0.27440  0.43010  Biso   1.000  O
  O192     1.0000 0.01590  0.34430  0.36080  Biso   1.000  O
  O193     1.0000 0.97800  0.24110  0.35330  Biso   1.000  O
  O194     1.0000 0.95720  0.31600  0.29320  Biso   1.000  O
  C89      1.0000 0.99840  0.27290  0.37770  Biso   1.000  C
  C90      1.0000 0.98840  0.31470  0.33940  Biso   1.000  C
  O195     1.0000 0.14850  0.42370  0.39770  Biso   1.000  O
  O196     1.0000 0.17520  0.35590  0.32650  Biso   1.000  O
  O197     1.0000 0.08740  0.38890  0.44890  Biso   1.000  O
  O198     1.0000 0.11490  0.32110  0.37970  Biso   1.000  O
  C91      1.0000 0.12430  0.39210  0.40880  Biso   1.000  C
  C92      1.0000 0.13890  0.35280  0.36870  Biso   1.000  C
  O199     1.0000 0.00580  0.35580  0.51120  Biso   1.000  O
  Fe32     1.0000 0.55724  0.33050  0.95407  Biso   1.000  Fe
  Cl32     1.0000 0.59961  0.30348  0.04853  Biso   1.000  Cl
  O200     1.0000 0.52830  0.27440  0.93010  Biso   1.000  O
  O201     1.0000 0.51590  0.34430  0.86080  Biso   1.000  O
  O202     1.0000 0.47800  0.24110  0.85330  Biso   1.000  O
  O203     1.0000 0.45720  0.31600  0.79320  Biso   1.000  O
  C93      1.0000 0.49840  0.27290  0.87770  Biso   1.000  C
  C94      1.0000 0.48840  0.31470  0.83940  Biso   1.000  C
  O204     1.0000 0.64850  0.42370  0.89770  Biso   1.000  O
  O205     1.0000 0.67520  0.35590  0.82650  Biso   1.000  O
  O206     1.0000 0.58740  0.38890  0.94890  Biso   1.000  O
  O207     1.0000 0.61490  0.32110  0.87970  Biso   1.000  O
  C95      1.0000 0.62430  0.39210  0.90880  Biso   1.000  C
  C96      1.0000 0.63890  0.35280  0.86870  Biso   1.000  C
  O208     1.0000 0.50580  0.35580  0.01120  Biso   1.000  O
