data_image0
_cell_length_a       11.834
_cell_length_b       10.237
_cell_length_c       6.309
_cell_angle_alpha    88.46
_cell_angle_beta     90.77
_cell_angle_gamma    111.96

_symmetry_space_group_name_H-M    "P 1"
_symmetry_int_tables_number       1

loop_
  _symmetry_equiv_pos_as_xyz
  'x, y, z'

loop_
  _atom_site_label
  _atom_site_occupancy
  _atom_site_fract_x
  _atom_site_fract_y
  _atom_site_fract_z
  _atom_site_thermal_displace_type
  _atom_site_B_iso_or_equiv
  _atom_site_type_symbol
  Rb1      1.0000 0.12456  0.05015  0.24779  Biso   1.000  Rb
  O1       1.0000 0.27390  0.36340  0.57270  Biso   1.000  O
  C1       1.0000 0.22480  0.45850  0.59990  Biso   1.000  C
  C2       1.0000 0.20710  0.53970  0.42970  Biso   1.000  C
  C3       1.0000 0.15130  0.63340  0.45940  Biso   1.000  C
  C4       1.0000 0.11360  0.64810  0.65860  Biso   1.000  C
  N1       1.0000 0.05180  0.74380  0.68910  Biso   1.000  N
  O2       1.0000 0.03330  0.80900  0.53500  Biso   1.000  O
  O3       1.0000 0.01850  0.75660  0.86880  Biso   1.000  O
  C5       1.0000 0.13180  0.57270  0.83120  Biso   1.000  C
  C6       1.0000 0.18780  0.47820  0.80060  Biso   1.000  C
  O4       1.0000 0.14140  0.10390  0.78000  Biso   1.000  O
  H1       1.0000 0.23600  0.53400  0.29700  Biso   1.000  H
  H2       1.0000 0.13900  0.68300  0.34600  Biso   1.000  H
  H3       1.0000 0.10500  0.58000  0.97800  Biso   1.000  H
  H4       1.0000 0.20200  0.42900  0.91800  Biso   1.000  H
  H5       1.0000 0.16300  0.16500  0.74100  Biso   1.000  H
  H6       1.0000 0.18300  0.06000  0.80000  Biso   1.000  H
  Rb2      1.0000 0.87544  0.94985  0.75221  Biso   1.000  Rb
  O5       1.0000 0.72610  0.63660  0.42730  Biso   1.000  O
  C7       1.0000 0.77520  0.54150  0.40010  Biso   1.000  C
  C8       1.0000 0.79290  0.46030  0.57030  Biso   1.000  C
  C9       1.0000 0.84870  0.36660  0.54060  Biso   1.000  C
  C10      1.0000 0.88640  0.35190  0.34140  Biso   1.000  C
  N2       1.0000 0.94820  0.25620  0.31090  Biso   1.000  N
  O6       1.0000 0.96670  0.19100  0.46500  Biso   1.000  O
  O7       1.0000 0.98150  0.24340  0.13120  Biso   1.000  O
  C11      1.0000 0.86820  0.42730  0.16880  Biso   1.000  C
  C12      1.0000 0.81220  0.52180  0.19940  Biso   1.000  C
  O8       1.0000 0.85860  0.89610  0.22000  Biso   1.000  O
  H7       1.0000 0.76400  0.46600  0.70300  Biso   1.000  H
  H8       1.0000 0.86100  0.31700  0.65400  Biso   1.000  H
  H9       1.0000 0.89500  0.42000  0.02200  Biso   1.000  H
  H10      1.0000 0.79800  0.57100  0.08200  Biso   1.000  H
  H11      1.0000 0.83700  0.83500  0.25900  Biso   1.000  H
  H12      1.0000 0.81700  0.94000  0.20000  Biso   1.000  H
