data_image0
_cell_length_a       15.137
_cell_length_b       15.137
_cell_length_c       9.6187
_cell_angle_alpha    90
_cell_angle_beta     90
_cell_angle_gamma    90

_symmetry_space_group_name_H-M    "P 1"
_symmetry_int_tables_number       1

loop_
  _symmetry_equiv_pos_as_xyz
  'x, y, z'

loop_
  _atom_site_label
  _atom_site_occupancy
  _atom_site_fract_x
  _atom_site_fract_y
  _atom_site_fract_z
  _atom_site_thermal_displace_type
  _atom_site_B_iso_or_equiv
  _atom_site_type_symbol
  Zn1      1.0000 0.50000  0.50000  0.65140  Biso   1.000  Zn
  Zn2      1.0000 0.50000  0.50000  0.34860  Biso   1.000  Zn
  O1       1.0000 0.50000  0.63470  0.62030  Biso   1.000  O
  C1       1.0000 0.50000  0.81610  0.62500  Biso   1.000  C
  H1       1.0000 0.50000  0.78690  0.71220  Biso   1.000  H
  N1       1.0000 0.50000  0.90540  0.61900  Biso   1.000  N
  O2       1.0000 0.50000  0.36530  0.62030  Biso   1.000  O
  C2       1.0000 0.50000  0.18390  0.62500  Biso   1.000  C
  H2       1.0000 0.50000  0.21310  0.71220  Biso   1.000  H
  N2       1.0000 0.50000  0.09460  0.61900  Biso   1.000  N
  O3       1.0000 0.36530  0.50000  0.62030  Biso   1.000  O
  C3       1.0000 0.18390  0.50000  0.62500  Biso   1.000  C
  H3       1.0000 0.21310  0.50000  0.71220  Biso   1.000  H
  N3       1.0000 0.09460  0.50000  0.61900  Biso   1.000  N
  O4       1.0000 0.63470  0.50000  0.62030  Biso   1.000  O
  C4       1.0000 0.81610  0.50000  0.62500  Biso   1.000  C
  H4       1.0000 0.78690  0.50000  0.71220  Biso   1.000  H
  N4       1.0000 0.90540  0.50000  0.61900  Biso   1.000  N
  O5       1.0000 0.50000  0.63470  0.37970  Biso   1.000  O
  C5       1.0000 0.50000  0.81610  0.37500  Biso   1.000  C
  H5       1.0000 0.50000  0.78690  0.28780  Biso   1.000  H
  N5       1.0000 0.50000  0.90540  0.38100  Biso   1.000  N
  O6       1.0000 0.50000  0.36530  0.37970  Biso   1.000  O
  C6       1.0000 0.50000  0.18390  0.37500  Biso   1.000  C
  H6       1.0000 0.50000  0.21310  0.28780  Biso   1.000  H
  N6       1.0000 0.50000  0.09460  0.38100  Biso   1.000  N
  O7       1.0000 0.63470  0.50000  0.37970  Biso   1.000  O
  C7       1.0000 0.81610  0.50000  0.37500  Biso   1.000  C
  H7       1.0000 0.78690  0.50000  0.28780  Biso   1.000  H
  N7       1.0000 0.90540  0.50000  0.38100  Biso   1.000  N
  O8       1.0000 0.36530  0.50000  0.37970  Biso   1.000  O
  C8       1.0000 0.18390  0.50000  0.37500  Biso   1.000  C
  H8       1.0000 0.21310  0.50000  0.28780  Biso   1.000  H
  N8       1.0000 0.09460  0.50000  0.38100  Biso   1.000  N
  C9       1.0000 0.50000  0.66750  0.50000  Biso   1.000  C
  C10      1.0000 0.50000  0.76630  0.50000  Biso   1.000  C
  C11      1.0000 0.50000  0.95190  0.50000  Biso   1.000  C
  C12      1.0000 0.50000  0.33250  0.50000  Biso   1.000  C
  C13      1.0000 0.50000  0.23370  0.50000  Biso   1.000  C
  C14      1.0000 0.50000  0.04810  0.50000  Biso   1.000  C
  C15      1.0000 0.33250  0.50000  0.50000  Biso   1.000  C
  C16      1.0000 0.23370  0.50000  0.50000  Biso   1.000  C
  C17      1.0000 0.04810  0.50000  0.50000  Biso   1.000  C
  C18      1.0000 0.66750  0.50000  0.50000  Biso   1.000  C
  C19      1.0000 0.76630  0.50000  0.50000  Biso   1.000  C
  C20      1.0000 0.95190  0.50000  0.50000  Biso   1.000  C
