data_image0
_cell_length_a       14.147
_cell_length_b       18.094
_cell_length_c       20.457
_cell_angle_alpha    90
_cell_angle_beta     102.567
_cell_angle_gamma    90

_symmetry_space_group_name_H-M    "P 1"
_symmetry_int_tables_number       1

loop_
  _symmetry_equiv_pos_as_xyz
  'x, y, z'

loop_
  _atom_site_label
  _atom_site_occupancy
  _atom_site_fract_x
  _atom_site_fract_y
  _atom_site_fract_z
  _atom_site_thermal_displace_type
  _atom_site_B_iso_or_equiv
  _atom_site_type_symbol
  Ag1      1.0000 0.23590  0.60605  0.46343  Biso   1.000  Ag
  C1       1.0000 0.40670  0.58300  0.47670  Biso   1.000  C
  C2       1.0000 0.38000  0.53010  0.42630  Biso   1.000  C
  C3       1.0000 0.37640  0.45560  0.44280  Biso   1.000  C
  C4       1.0000 0.39570  0.43340  0.50900  Biso   1.000  C
  C5       1.0000 0.39940  0.48710  0.55670  Biso   1.000  C
  C6       1.0000 0.40490  0.56110  0.54160  Biso   1.000  C
  C7       1.0000 0.45790  0.65340  0.46470  Biso   1.000  C
  C8       1.0000 0.43110  0.35640  0.52810  Biso   1.000  C
  C9       1.0000 0.08510  0.54430  0.44270  Biso   1.000  C
  C10      1.0000 0.13880  0.49090  0.48390  Biso   1.000  C
  C11      1.0000 0.13950  0.48700  0.55150  Biso   1.000  C
  C12      1.0000 0.08490  0.53610  0.58030  Biso   1.000  C
  C13      1.0000 0.04890  0.59790  0.54260  Biso   1.000  C
  C14      1.0000 0.04790  0.60270  0.47540  Biso   1.000  C
  C15      1.0000 0.04450  0.52920  0.36940  Biso   1.000  C
  C16      1.0000 0.05250  0.51590  0.64360  Biso   1.000  C
  H1       1.0000 0.37800  0.55000  0.38400  Biso   1.000  H
  H2       1.0000 0.36600  0.42700  0.41400  Biso   1.000  H
  H3       1.0000 0.40800  0.47300  0.60200  Biso   1.000  H
  H4       1.0000 0.41300  0.59700  0.57300  Biso   1.000  H
  H5       1.0000 0.43200  0.67300  0.42700  Biso   1.000  H
  H6       1.0000 0.45100  0.68800  0.49500  Biso   1.000  H
  H7       1.0000 0.39500  0.32600  0.50100  Biso   1.000  H
  H8       1.0000 0.41600  0.33700  0.56500  Biso   1.000  H
  H9       1.0000 0.16900  0.45300  0.46000  Biso   1.000  H
  H10      1.0000 0.17100  0.45000  0.57400  Biso   1.000  H
  H11      1.0000 0.01900  0.62800  0.55800  Biso   1.000  H
  H12      1.0000 0.01400  0.64000  0.44400  Biso   1.000  H
  H13      1.0000 0.08800  0.50400  0.35000  Biso   1.000  H
  H14      1.0000 0.03600  0.57100  0.34900  Biso   1.000  H
  H15      1.0000 0.10800  0.49400  0.67300  Biso   1.000  H
  H16      1.0000 0.03900  0.55900  0.66200  Biso   1.000  H
  Ag2      1.0000 0.76410  0.39395  0.53657  Biso   1.000  Ag
  C17      1.0000 0.59330  0.41700  0.52330  Biso   1.000  C
  C18      1.0000 0.62000  0.46990  0.57370  Biso   1.000  C
  C19      1.0000 0.62360  0.54440  0.55720  Biso   1.000  C
  C20      1.0000 0.60430  0.56660  0.49100  Biso   1.000  C
  C21      1.0000 0.60060  0.51290  0.44330  Biso   1.000  C
  C22      1.0000 0.59510  0.43890  0.45840  Biso   1.000  C
  C23      1.0000 0.54210  0.34660  0.53530  Biso   1.000  C
  C24      1.0000 0.56890  0.64360  0.47190  Biso   1.000  C
  C25      1.0000 0.91490  0.45570  0.55730  Biso   1.000  C
  C26      1.0000 0.86120  0.50910  0.51610  Biso   1.000  C
  C27      1.0000 0.86050  0.51300  0.44850  Biso   1.000  C
  C28      1.0000 0.91510  0.46390  0.41970  Biso   1.000  C
  C29      1.0000 0.95110  0.40210  0.45740  Biso   1.000  C
  C30      1.0000 0.95210  0.39730  0.52460  Biso   1.000  C
  C31      1.0000 0.95550  0.47080  0.63060  Biso   1.000  C
  C32      1.0000 0.94750  0.48410  0.35640  Biso   1.000  C
  H17      1.0000 0.62200  0.45000  0.61600  Biso   1.000  H
  H18      1.0000 0.63400  0.57300  0.58600  Biso   1.000  H
  H19      1.0000 0.59200  0.52700  0.39800  Biso   1.000  H
  H20      1.0000 0.58700  0.40300  0.42700  Biso   1.000  H
  H21      1.0000 0.56800  0.32700  0.57300  Biso   1.000  H
  H22      1.0000 0.54900  0.31200  0.50500  Biso   1.000  H
  H23      1.0000 0.60500  0.67400  0.49900  Biso   1.000  H
  H24      1.0000 0.58400  0.66300  0.43500  Biso   1.000  H
  H25      1.0000 0.83100  0.54700  0.54000  Biso   1.000  H
  H26      1.0000 0.82900  0.55000  0.42600  Biso   1.000  H
  H27      1.0000 0.98100  0.37200  0.44200  Biso   1.000  H
  H28      1.0000 0.98600  0.36000  0.55600  Biso   1.000  H
  H29      1.0000 0.91200  0.49600  0.65000  Biso   1.000  H
  H30      1.0000 0.96400  0.42900  0.65100  Biso   1.000  H
  H31      1.0000 0.89200  0.50600  0.32700  Biso   1.000  H
  H32      1.0000 0.96100  0.44100  0.33800  Biso   1.000  H
  Ag3      1.0000 0.76410  0.10605  0.03657  Biso   1.000  Ag
  C33      1.0000 0.59330  0.08300  0.02330  Biso   1.000  C
  C34      1.0000 0.62000  0.03010  0.07370  Biso   1.000  C
  C35      1.0000 0.62360  0.95560  0.05720  Biso   1.000  C
  C36      1.0000 0.60430  0.93340  0.99100  Biso   1.000  C
  C37      1.0000 0.60060  0.98710  0.94330  Biso   1.000  C
  C38      1.0000 0.59510  0.06110  0.95840  Biso   1.000  C
  C39      1.0000 0.54210  0.15340  0.03530  Biso   1.000  C
  C40      1.0000 0.56890  0.85640  0.97190  Biso   1.000  C
  C41      1.0000 0.91490  0.04430  0.05730  Biso   1.000  C
  C42      1.0000 0.86120  0.99090  0.01610  Biso   1.000  C
  C43      1.0000 0.86050  0.98700  0.94850  Biso   1.000  C
  C44      1.0000 0.91510  0.03610  0.91970  Biso   1.000  C
  C45      1.0000 0.95110  0.09790  0.95740  Biso   1.000  C
  C46      1.0000 0.95210  0.10270  0.02460  Biso   1.000  C
  C47      1.0000 0.95550  0.02920  0.13060  Biso   1.000  C
  C48      1.0000 0.94750  0.01590  0.85640  Biso   1.000  C
  H33      1.0000 0.62200  0.05000  0.11600  Biso   1.000  H
  H34      1.0000 0.63400  0.92700  0.08600  Biso   1.000  H
  H35      1.0000 0.59200  0.97300  0.89800  Biso   1.000  H
  H36      1.0000 0.58700  0.09700  0.92700  Biso   1.000  H
  H37      1.0000 0.56800  0.17300  0.07300  Biso   1.000  H
  H38      1.0000 0.54900  0.18800  0.00500  Biso   1.000  H
  H39      1.0000 0.60500  0.82600  0.99900  Biso   1.000  H
  H40      1.0000 0.58400  0.83700  0.93500  Biso   1.000  H
  H41      1.0000 0.83100  0.95300  0.04000  Biso   1.000  H
  H42      1.0000 0.82900  0.95000  0.92600  Biso   1.000  H
  H43      1.0000 0.98100  0.12800  0.94200  Biso   1.000  H
  H44      1.0000 0.98600  0.14000  0.05600  Biso   1.000  H
  H45      1.0000 0.91200  0.00400  0.15000  Biso   1.000  H
  H46      1.0000 0.96400  0.07100  0.15100  Biso   1.000  H
  H47      1.0000 0.89200  0.99400  0.82700  Biso   1.000  H
  H48      1.0000 0.96100  0.05900  0.83800  Biso   1.000  H
  Ag4      1.0000 0.23590  0.89395  0.96343  Biso   1.000  Ag
  C49      1.0000 0.40670  0.91700  0.97670  Biso   1.000  C
  C50      1.0000 0.38000  0.96990  0.92630  Biso   1.000  C
  C51      1.0000 0.37640  0.04440  0.94280  Biso   1.000  C
  C52      1.0000 0.39570  0.06660  0.00900  Biso   1.000  C
  C53      1.0000 0.39940  0.01290  0.05670  Biso   1.000  C
  C54      1.0000 0.40490  0.93890  0.04160  Biso   1.000  C
  C55      1.0000 0.45790  0.84660  0.96470  Biso   1.000  C
  C56      1.0000 0.43110  0.14360  0.02810  Biso   1.000  C
  C57      1.0000 0.08510  0.95570  0.94270  Biso   1.000  C
  C58      1.0000 0.13880  0.00910  0.98390  Biso   1.000  C
  C59      1.0000 0.13950  0.01300  0.05150  Biso   1.000  C
  C60      1.0000 0.08490  0.96390  0.08030  Biso   1.000  C
  C61      1.0000 0.04890  0.90210  0.04260  Biso   1.000  C
  C62      1.0000 0.04790  0.89730  0.97540  Biso   1.000  C
  C63      1.0000 0.04450  0.97080  0.86940  Biso   1.000  C
  C64      1.0000 0.05250  0.98410  0.14360  Biso   1.000  C
  H49      1.0000 0.37800  0.95000  0.88400  Biso   1.000  H
  H50      1.0000 0.36600  0.07300  0.91400  Biso   1.000  H
  H51      1.0000 0.40800  0.02700  0.10200  Biso   1.000  H
  H52      1.0000 0.41300  0.90300  0.07300  Biso   1.000  H
  H53      1.0000 0.43200  0.82700  0.92700  Biso   1.000  H
  H54      1.0000 0.45100  0.81200  0.99500  Biso   1.000  H
  H55      1.0000 0.39500  0.17400  0.00100  Biso   1.000  H
  H56      1.0000 0.41600  0.16300  0.06500  Biso   1.000  H
  H57      1.0000 0.16900  0.04700  0.96000  Biso   1.000  H
  H58      1.0000 0.17100  0.05000  0.07400  Biso   1.000  H
  H59      1.0000 0.01900  0.87200  0.05800  Biso   1.000  H
  H60      1.0000 0.01400  0.86000  0.94400  Biso   1.000  H
  H61      1.0000 0.08800  0.99600  0.85000  Biso   1.000  H
  H62      1.0000 0.03600  0.92900  0.84900  Biso   1.000  H
  H63      1.0000 0.10800  0.00600  0.17300  Biso   1.000  H
  H64      1.0000 0.03900  0.94100  0.16200  Biso   1.000  H
  Ag5      1.0000 0.24692  0.38691  0.00075  Biso   1.000  Ag
  C65      1.0000 0.41560  0.41510  0.01070  Biso   1.000  C
  C66      1.0000 0.41200  0.46410  0.06270  Biso   1.000  C
  C67      1.0000 0.39900  0.53930  0.04920  Biso   1.000  C
  C68      1.0000 0.38930  0.56610  0.98500  Biso   1.000  C
  C69      1.0000 0.37110  0.51630  0.93290  Biso   1.000  C
  C70      1.0000 0.38350  0.44080  0.94550  Biso   1.000  C
  C71      1.0000 0.47380  0.34360  0.02390  Biso   1.000  C
  C72      1.0000 0.41650  0.64460  0.97260  Biso   1.000  C
  C73      1.0000 0.10440  0.45760  0.95780  Biso   1.000  C
  C74      1.0000 0.14170  0.51140  0.00520  Biso   1.000  C
  C75      1.0000 0.11910  0.51180  0.06700  Biso   1.000  C
  C76      1.0000 0.05910  0.45800  0.08570  Biso   1.000  C
  C77      1.0000 0.04070  0.39620  0.04520  Biso   1.000  C
  C78      1.0000 0.06200  0.39520  0.98240  Biso   1.000  C
  C79      1.0000 0.08560  0.47580  0.88420  Biso   1.000  C
  C80      1.0000 0.00470  0.47290  0.13940  Biso   1.000  C
  H65      1.0000 0.42900  0.44700  0.10500  Biso   1.000  H
  H66      1.0000 0.40100  0.56800  0.08400  Biso   1.000  H
  H67      1.0000 0.36300  0.53300  0.88900  Biso   1.000  H
  H68      1.0000 0.38000  0.41500  0.91200  Biso   1.000  H
  H69      1.0000 0.46600  0.32100  0.05900  Biso   1.000  H
  H70      1.0000 0.45400  0.31200  0.97900  Biso   1.000  H
  H71      1.0000 0.39300  0.67600  0.00200  Biso   1.000  H
  H72      1.0000 0.38400  0.66100  0.92700  Biso   1.000  H
  H73      1.0000 0.17300  0.55000  0.99100  Biso   1.000  H
  H74      1.0000 0.13500  0.54600  0.09500  Biso   1.000  H
  H75      1.0000 0.99600  0.36100  0.05900  Biso   1.000  H
  H76      1.0000 0.03400  0.36100  0.94800  Biso   1.000  H
  H77      1.0000 0.14200  0.48800  0.87300  Biso   1.000  H
  H78      1.0000 0.06900  0.43000  0.85800  Biso   1.000  H
  H79      1.0000 0.04000  0.48500  0.17800  Biso   1.000  H
  H80      1.0000 0.98700  0.42900  0.15700  Biso   1.000  H
  Ag6      1.0000 0.75308  0.61309  0.99925  Biso   1.000  Ag
  C81      1.0000 0.58440  0.58490  0.98930  Biso   1.000  C
  C82      1.0000 0.58800  0.53590  0.93730  Biso   1.000  C
  C83      1.0000 0.60100  0.46070  0.95080  Biso   1.000  C
  C84      1.0000 0.61070  0.43390  0.01500  Biso   1.000  C
  C85      1.0000 0.62890  0.48370  0.06710  Biso   1.000  C
  C86      1.0000 0.61650  0.55920  0.05450  Biso   1.000  C
  C87      1.0000 0.52620  0.65640  0.97610  Biso   1.000  C
  C88      1.0000 0.58350  0.35540  0.02740  Biso   1.000  C
  C89      1.0000 0.89560  0.54240  0.04220  Biso   1.000  C
  C90      1.0000 0.85830  0.48860  0.99480  Biso   1.000  C
  C91      1.0000 0.88090  0.48820  0.93300  Biso   1.000  C
  C92      1.0000 0.94090  0.54200  0.91430  Biso   1.000  C
  C93      1.0000 0.95930  0.60380  0.95480  Biso   1.000  C
  C94      1.0000 0.93800  0.60480  0.01760  Biso   1.000  C
  C95      1.0000 0.91440  0.52420  0.11580  Biso   1.000  C
  C96      1.0000 0.99530  0.52710  0.86060  Biso   1.000  C
  H81      1.0000 0.57100  0.55300  0.89500  Biso   1.000  H
  H82      1.0000 0.59900  0.43200  0.91600  Biso   1.000  H
  H83      1.0000 0.63700  0.46700  0.11100  Biso   1.000  H
  H84      1.0000 0.62000  0.58500  0.08800  Biso   1.000  H
  H85      1.0000 0.53400  0.67900  0.94100  Biso   1.000  H
  H86      1.0000 0.54600  0.68800  0.02100  Biso   1.000  H
  H87      1.0000 0.60700  0.32400  0.99800  Biso   1.000  H
  H88      1.0000 0.61600  0.33900  0.07300  Biso   1.000  H
  H89      1.0000 0.82700  0.45000  0.00900  Biso   1.000  H
  H90      1.0000 0.86500  0.45400  0.90500  Biso   1.000  H
  H91      1.0000 0.00400  0.63900  0.94100  Biso   1.000  H
  H92      1.0000 0.96600  0.63900  0.05200  Biso   1.000  H
  H93      1.0000 0.85800  0.51200  0.12700  Biso   1.000  H
  H94      1.0000 0.93100  0.57000  0.14200  Biso   1.000  H
  H95      1.0000 0.96000  0.51500  0.82200  Biso   1.000  H
  H96      1.0000 0.01300  0.57100  0.84300  Biso   1.000  H
  Ag7      1.0000 0.75308  0.88691  0.49925  Biso   1.000  Ag
  C97      1.0000 0.58440  0.91510  0.48930  Biso   1.000  C
  C98      1.0000 0.58800  0.96410  0.43730  Biso   1.000  C
  C99      1.0000 0.60100  0.03930  0.45080  Biso   1.000  C
  C100     1.0000 0.61070  0.06610  0.51500  Biso   1.000  C
  C101     1.0000 0.62890  0.01630  0.56710  Biso   1.000  C
  C102     1.0000 0.61650  0.94080  0.55450  Biso   1.000  C
  C103     1.0000 0.52620  0.84360  0.47610  Biso   1.000  C
  C104     1.0000 0.58350  0.14460  0.52740  Biso   1.000  C
  C105     1.0000 0.89560  0.95760  0.54220  Biso   1.000  C
  C106     1.0000 0.85830  0.01140  0.49480  Biso   1.000  C
  C107     1.0000 0.88090  0.01180  0.43300  Biso   1.000  C
  C108     1.0000 0.94090  0.95800  0.41430  Biso   1.000  C
  C109     1.0000 0.95930  0.89620  0.45480  Biso   1.000  C
  C110     1.0000 0.93800  0.89520  0.51760  Biso   1.000  C
  C111     1.0000 0.91440  0.97580  0.61580  Biso   1.000  C
  C112     1.0000 0.99530  0.97290  0.36060  Biso   1.000  C
  H97      1.0000 0.57100  0.94700  0.39500  Biso   1.000  H
  H98      1.0000 0.59900  0.06800  0.41600  Biso   1.000  H
  H99      1.0000 0.63700  0.03300  0.61100  Biso   1.000  H
  H100     1.0000 0.62000  0.91500  0.58800  Biso   1.000  H
  H101     1.0000 0.53400  0.82100  0.44100  Biso   1.000  H
  H102     1.0000 0.54600  0.81200  0.52100  Biso   1.000  H
  H103     1.0000 0.60700  0.17600  0.49800  Biso   1.000  H
  H104     1.0000 0.61600  0.16100  0.57300  Biso   1.000  H
  H105     1.0000 0.82700  0.05000  0.50900  Biso   1.000  H
  H106     1.0000 0.86500  0.04600  0.40500  Biso   1.000  H
  H107     1.0000 0.00400  0.86100  0.44100  Biso   1.000  H
  H108     1.0000 0.96600  0.86100  0.55200  Biso   1.000  H
  H109     1.0000 0.85800  0.98800  0.62700  Biso   1.000  H
  H110     1.0000 0.93100  0.93000  0.64200  Biso   1.000  H
  H111     1.0000 0.96000  0.98500  0.32200  Biso   1.000  H
  H112     1.0000 0.01300  0.92900  0.34300  Biso   1.000  H
  Ag8      1.0000 0.24692  0.11309  0.50075  Biso   1.000  Ag
  C113     1.0000 0.41560  0.08490  0.51070  Biso   1.000  C
  C114     1.0000 0.41200  0.03590  0.56270  Biso   1.000  C
  C115     1.0000 0.39900  0.96070  0.54920  Biso   1.000  C
  C116     1.0000 0.38930  0.93390  0.48500  Biso   1.000  C
  C117     1.0000 0.37110  0.98370  0.43290  Biso   1.000  C
  C118     1.0000 0.38350  0.05920  0.44550  Biso   1.000  C
  C119     1.0000 0.47380  0.15640  0.52390  Biso   1.000  C
  C120     1.0000 0.41650  0.85540  0.47260  Biso   1.000  C
  C121     1.0000 0.10440  0.04240  0.45780  Biso   1.000  C
  C122     1.0000 0.14170  0.98860  0.50520  Biso   1.000  C
  C123     1.0000 0.11910  0.98820  0.56700  Biso   1.000  C
  C124     1.0000 0.05910  0.04200  0.58570  Biso   1.000  C
  C125     1.0000 0.04070  0.10380  0.54520  Biso   1.000  C
  C126     1.0000 0.06200  0.10480  0.48240  Biso   1.000  C
  C127     1.0000 0.08560  0.02420  0.38420  Biso   1.000  C
  C128     1.0000 0.00470  0.02710  0.63940  Biso   1.000  C
  H113     1.0000 0.42900  0.05300  0.60500  Biso   1.000  H
  H114     1.0000 0.40100  0.93200  0.58400  Biso   1.000  H
  H115     1.0000 0.36300  0.96700  0.38900  Biso   1.000  H
  H116     1.0000 0.38000  0.08500  0.41200  Biso   1.000  H
  H117     1.0000 0.46600  0.17900  0.55900  Biso   1.000  H
  H118     1.0000 0.45400  0.18800  0.47900  Biso   1.000  H
  H119     1.0000 0.39300  0.82400  0.50200  Biso   1.000  H
  H120     1.0000 0.38400  0.83900  0.42700  Biso   1.000  H
  H121     1.0000 0.17300  0.95000  0.49100  Biso   1.000  H
  H122     1.0000 0.13500  0.95400  0.59500  Biso   1.000  H
  H123     1.0000 0.99600  0.13900  0.55900  Biso   1.000  H
  H124     1.0000 0.03400  0.13900  0.44800  Biso   1.000  H
  H125     1.0000 0.14200  0.01200  0.37300  Biso   1.000  H
  H126     1.0000 0.06900  0.07000  0.35800  Biso   1.000  H
  H127     1.0000 0.04000  0.01500  0.67800  Biso   1.000  H
  H128     1.0000 0.98700  0.07100  0.65700  Biso   1.000  H
