data_image0
_cell_length_a       21.821
_cell_length_b       7.0848
_cell_length_c       18.798
_cell_angle_alpha    90
_cell_angle_beta     121.59
_cell_angle_gamma    90

_symmetry_space_group_name_H-M    "P 1"
_symmetry_int_tables_number       1

loop_
  _symmetry_equiv_pos_as_xyz
  'x, y, z'

loop_
  _atom_site_label
  _atom_site_occupancy
  _atom_site_fract_x
  _atom_site_fract_y
  _atom_site_fract_z
  _atom_site_thermal_displace_type
  _atom_site_B_iso_or_equiv
  _atom_site_type_symbol
  Cd1      1.0000 0.23541  0.03643  0.22155  Biso   1.000  Cd
  C1       1.0000 0.35610  0.27550  0.22170  Biso   1.000  C
  C2       1.0000 0.43080  0.27470  0.23580  Biso   1.000  C
  C3       1.0000 0.46560  0.44460  0.24330  Biso   1.000  C
  H1       1.0000 0.44270  0.55830  0.23930  Biso   1.000  H
  C4       1.0000 0.46530  0.10550  0.24240  Biso   1.000  C
  H2       1.0000 0.44180  0.99170  0.23650  Biso   1.000  H
  O1       1.0000 0.32044  0.12560  0.19790  Biso   1.000  O
  O2       1.0000 0.33480  0.42740  0.23380  Biso   1.000  O
  Cd2      1.0000 0.73541  0.53643  0.22155  Biso   1.000  Cd
  C5       1.0000 0.85610  0.77550  0.22170  Biso   1.000  C
  C6       1.0000 0.93080  0.77470  0.23580  Biso   1.000  C
  C7       1.0000 0.96560  0.94460  0.24330  Biso   1.000  C
  H3       1.0000 0.94270  0.05830  0.23930  Biso   1.000  H
  C8       1.0000 0.96530  0.60550  0.24240  Biso   1.000  C
  H4       1.0000 0.94180  0.49170  0.23650  Biso   1.000  H
  O3       1.0000 0.82044  0.62560  0.19790  Biso   1.000  O
  O4       1.0000 0.83480  0.92740  0.23380  Biso   1.000  O
  Cd3      1.0000 0.76459  0.03643  0.27845  Biso   1.000  Cd
  C9       1.0000 0.64390  0.27550  0.27830  Biso   1.000  C
  C10      1.0000 0.56920  0.27470  0.26420  Biso   1.000  C
  C11      1.0000 0.53440  0.44460  0.25670  Biso   1.000  C
  H5       1.0000 0.55730  0.55830  0.26070  Biso   1.000  H
  C12      1.0000 0.53470  0.10550  0.25760  Biso   1.000  C
  H6       1.0000 0.55820  0.99170  0.26350  Biso   1.000  H
  O5       1.0000 0.67956  0.12560  0.30210  Biso   1.000  O
  O6       1.0000 0.66520  0.42740  0.26620  Biso   1.000  O
  Cd4      1.0000 0.26459  0.53643  0.27845  Biso   1.000  Cd
  C13      1.0000 0.14390  0.77550  0.27830  Biso   1.000  C
  C14      1.0000 0.06920  0.77470  0.26420  Biso   1.000  C
  C15      1.0000 0.03440  0.94460  0.25670  Biso   1.000  C
  H7       1.0000 0.05730  0.05830  0.26070  Biso   1.000  H
  C16      1.0000 0.03470  0.60550  0.25760  Biso   1.000  C
  H8       1.0000 0.05820  0.49170  0.26350  Biso   1.000  H
  O7       1.0000 0.17956  0.62560  0.30210  Biso   1.000  O
  O8       1.0000 0.16520  0.92740  0.26620  Biso   1.000  O
  Cd5      1.0000 0.76459  0.96357  0.77845  Biso   1.000  Cd
  C17      1.0000 0.64390  0.72450  0.77830  Biso   1.000  C
  C18      1.0000 0.56920  0.72530  0.76420  Biso   1.000  C
  C19      1.0000 0.53440  0.55540  0.75670  Biso   1.000  C
  H9       1.0000 0.55730  0.44170  0.76070  Biso   1.000  H
  C20      1.0000 0.53470  0.89450  0.75760  Biso   1.000  C
  H10      1.0000 0.55820  0.00830  0.76350  Biso   1.000  H
  O9       1.0000 0.67956  0.87440  0.80210  Biso   1.000  O
  O10      1.0000 0.66520  0.57260  0.76620  Biso   1.000  O
  Cd6      1.0000 0.26459  0.46357  0.77846  Biso   1.000  Cd
  C21      1.0000 0.14390  0.22450  0.77830  Biso   1.000  C
  C22      1.0000 0.06920  0.22530  0.76420  Biso   1.000  C
  C23      1.0000 0.03440  0.05540  0.75670  Biso   1.000  C
  H11      1.0000 0.05730  0.94170  0.76070  Biso   1.000  H
  C24      1.0000 0.03470  0.39450  0.75760  Biso   1.000  C
  H12      1.0000 0.05820  0.50830  0.76350  Biso   1.000  H
  O11      1.0000 0.17956  0.37440  0.80210  Biso   1.000  O
  O12      1.0000 0.16520  0.07260  0.76620  Biso   1.000  O
  Cd7      1.0000 0.23541  0.96357  0.72155  Biso   1.000  Cd
  C25      1.0000 0.35610  0.72450  0.72170  Biso   1.000  C
  C26      1.0000 0.43080  0.72530  0.73580  Biso   1.000  C
  C27      1.0000 0.46560  0.55540  0.74330  Biso   1.000  C
  H13      1.0000 0.44270  0.44170  0.73930  Biso   1.000  H
  C28      1.0000 0.46530  0.89450  0.74240  Biso   1.000  C
  H14      1.0000 0.44180  0.00830  0.73650  Biso   1.000  H
  O13      1.0000 0.32044  0.87440  0.69790  Biso   1.000  O
  O14      1.0000 0.33480  0.57260  0.73380  Biso   1.000  O
  Cd8      1.0000 0.73541  0.46357  0.72155  Biso   1.000  Cd
  C29      1.0000 0.85610  0.22450  0.72170  Biso   1.000  C
  C30      1.0000 0.93080  0.22530  0.73580  Biso   1.000  C
  C31      1.0000 0.96560  0.05540  0.74330  Biso   1.000  C
  H15      1.0000 0.94270  0.94170  0.73930  Biso   1.000  H
  C32      1.0000 0.96530  0.39450  0.74240  Biso   1.000  C
  H16      1.0000 0.94180  0.50830  0.73650  Biso   1.000  H
  O15      1.0000 0.82044  0.37440  0.69790  Biso   1.000  O
  O16      1.0000 0.83480  0.07260  0.73380  Biso   1.000  O
