data_image0
_cell_length_a       14.6246
_cell_length_b       12.9505
_cell_length_c       14.8149
_cell_angle_alpha    90
_cell_angle_beta     108.622
_cell_angle_gamma    90

_symmetry_space_group_name_H-M    "P 1"
_symmetry_int_tables_number       1

loop_
  _symmetry_equiv_pos_as_xyz
  'x, y, z'

loop_
  _atom_site_label
  _atom_site_occupancy
  _atom_site_fract_x
  _atom_site_fract_y
  _atom_site_fract_z
  _atom_site_thermal_displace_type
  _atom_site_B_iso_or_equiv
  _atom_site_type_symbol
  O1       1.0000 0.01880  0.41370  0.14900  Biso   1.000  O
  O2       1.0000 0.88750  0.42540  0.02460  Biso   1.000  O
  O3       1.0000 0.62230  0.17050  0.00390  Biso   1.000  O
  O4       1.0000 0.60080  0.11810  0.13630  Biso   1.000  O
  O5       1.0000 0.80320  0.26020  0.44510  Biso   1.000  O
  O6       1.0000 0.79260  0.50470  0.55490  Biso   1.000  O
  O7       1.0000 0.86260  0.35680  0.61630  Biso   1.000  O
  C1       1.0000 0.93060  0.39360  0.10620  Biso   1.000  C
  C2       1.0000 0.64690  0.16790  0.09120  Biso   1.000  C
  C3       1.0000 0.87440  0.33010  0.15440  Biso   1.000  C
  C4       1.0000 0.78890  0.28170  0.10400  Biso   1.000  C
  H1       1.0000 0.76750  0.28590  0.03780  Biso   1.000  H
  C5       1.0000 0.73550  0.22840  0.14820  Biso   1.000  C
  C6       1.0000 0.76470  0.22650  0.24620  Biso   1.000  C
  H2       1.0000 0.72660  0.19270  0.27660  Biso   1.000  H
  C7       1.0000 0.84920  0.27350  0.30080  Biso   1.000  C
  C8       1.0000 0.90480  0.32450  0.25430  Biso   1.000  C
  H3       1.0000 0.96260  0.35530  0.28960  Biso   1.000  H
  C9       1.0000 0.88280  0.26880  0.40780  Biso   1.000  C
  H4       1.0000 0.92520  0.20990  0.42870  Biso   1.000  H
  H5       1.0000 0.91940  0.33060  0.43310  Biso   1.000  H
  C10      1.0000 0.75980  0.35730  0.45300  Biso   1.000  C
  H6       1.0000 0.76070  0.40310  0.40070  Biso   1.000  H
  C11      1.0000 0.81020  0.40770  0.54770  Biso   1.000  C
  C12      1.0000 0.65610  0.33150  0.44670  Biso   1.000  C
  H7       1.0000 0.62320  0.30210  0.38550  Biso   1.000  H
  H8       1.0000 0.62360  0.39330  0.45510  Biso   1.000  H
  H9       1.0000 0.65640  0.28270  0.49560  Biso   1.000  H
  O8       1.0000 0.51880  0.91370  0.14900  Biso   1.000  O
  O9       1.0000 0.38750  0.92540  0.02460  Biso   1.000  O
  O10      1.0000 0.12230  0.67050  0.00390  Biso   1.000  O
  O11      1.0000 0.10080  0.61810  0.13630  Biso   1.000  O
  O12      1.0000 0.30320  0.76020  0.44510  Biso   1.000  O
  O13      1.0000 0.29260  0.00470  0.55490  Biso   1.000  O
  O14      1.0000 0.36260  0.85680  0.61630  Biso   1.000  O
  C13      1.0000 0.43060  0.89360  0.10620  Biso   1.000  C
  C14      1.0000 0.14690  0.66790  0.09120  Biso   1.000  C
  C15      1.0000 0.37440  0.83010  0.15440  Biso   1.000  C
  C16      1.0000 0.28890  0.78170  0.10400  Biso   1.000  C
  H10      1.0000 0.26750  0.78590  0.03780  Biso   1.000  H
  C17      1.0000 0.23550  0.72840  0.14820  Biso   1.000  C
  C18      1.0000 0.26470  0.72650  0.24620  Biso   1.000  C
  H11      1.0000 0.22660  0.69270  0.27660  Biso   1.000  H
  C19      1.0000 0.34920  0.77350  0.30080  Biso   1.000  C
  C20      1.0000 0.40480  0.82450  0.25430  Biso   1.000  C
  H12      1.0000 0.46260  0.85530  0.28960  Biso   1.000  H
  C21      1.0000 0.38280  0.76880  0.40780  Biso   1.000  C
  H13      1.0000 0.42520  0.70990  0.42870  Biso   1.000  H
  H14      1.0000 0.41940  0.83060  0.43310  Biso   1.000  H
  C22      1.0000 0.25980  0.85730  0.45300  Biso   1.000  C
  H15      1.0000 0.26070  0.90310  0.40070  Biso   1.000  H
  C23      1.0000 0.31020  0.90770  0.54770  Biso   1.000  C
  C24      1.0000 0.15610  0.83150  0.44670  Biso   1.000  C
  H16      1.0000 0.12320  0.80210  0.38550  Biso   1.000  H
  H17      1.0000 0.12360  0.89330  0.45510  Biso   1.000  H
  H18      1.0000 0.15640  0.78270  0.49560  Biso   1.000  H
  O15      1.0000 0.98120  0.41370  0.85100  Biso   1.000  O
  O16      1.0000 0.11250  0.42540  0.97540  Biso   1.000  O
  O17      1.0000 0.37770  0.17050  0.99610  Biso   1.000  O
  O18      1.0000 0.39920  0.11810  0.86370  Biso   1.000  O
  O19      1.0000 0.19680  0.26020  0.55490  Biso   1.000  O
  O20      1.0000 0.20740  0.50470  0.44510  Biso   1.000  O
  O21      1.0000 0.13740  0.35680  0.38370  Biso   1.000  O
  C25      1.0000 0.06940  0.39360  0.89380  Biso   1.000  C
  C26      1.0000 0.35310  0.16790  0.90880  Biso   1.000  C
  C27      1.0000 0.12560  0.33010  0.84560  Biso   1.000  C
  C28      1.0000 0.21110  0.28170  0.89600  Biso   1.000  C
  H19      1.0000 0.23250  0.28590  0.96220  Biso   1.000  H
  C29      1.0000 0.26450  0.22840  0.85180  Biso   1.000  C
  C30      1.0000 0.23530  0.22650  0.75380  Biso   1.000  C
  H20      1.0000 0.27340  0.19270  0.72340  Biso   1.000  H
  C31      1.0000 0.15080  0.27350  0.69920  Biso   1.000  C
  C32      1.0000 0.09520  0.32450  0.74570  Biso   1.000  C
  H21      1.0000 0.03740  0.35530  0.71040  Biso   1.000  H
  C33      1.0000 0.11720  0.26880  0.59220  Biso   1.000  C
  H22      1.0000 0.07480  0.20990  0.57130  Biso   1.000  H
  H23      1.0000 0.08060  0.33060  0.56690  Biso   1.000  H
  C34      1.0000 0.24020  0.35730  0.54700  Biso   1.000  C
  H24      1.0000 0.23930  0.40310  0.59930  Biso   1.000  H
  C35      1.0000 0.18980  0.40770  0.45230  Biso   1.000  C
  C36      1.0000 0.34390  0.33150  0.55330  Biso   1.000  C
  H25      1.0000 0.37680  0.30210  0.61450  Biso   1.000  H
  H26      1.0000 0.37640  0.39330  0.54490  Biso   1.000  H
  H27      1.0000 0.34360  0.28270  0.50440  Biso   1.000  H
  O22      1.0000 0.48120  0.91370  0.85100  Biso   1.000  O
  O23      1.0000 0.61250  0.92540  0.97540  Biso   1.000  O
  O24      1.0000 0.87770  0.67050  0.99610  Biso   1.000  O
  O25      1.0000 0.89920  0.61810  0.86370  Biso   1.000  O
  O26      1.0000 0.69680  0.76020  0.55490  Biso   1.000  O
  O27      1.0000 0.70740  0.00470  0.44510  Biso   1.000  O
  O28      1.0000 0.63740  0.85680  0.38370  Biso   1.000  O
  C37      1.0000 0.56940  0.89360  0.89380  Biso   1.000  C
  C38      1.0000 0.85310  0.66790  0.90880  Biso   1.000  C
  C39      1.0000 0.62560  0.83010  0.84560  Biso   1.000  C
  C40      1.0000 0.71110  0.78170  0.89600  Biso   1.000  C
  H28      1.0000 0.73250  0.78590  0.96220  Biso   1.000  H
  C41      1.0000 0.76450  0.72840  0.85180  Biso   1.000  C
  C42      1.0000 0.73530  0.72650  0.75380  Biso   1.000  C
  H29      1.0000 0.77340  0.69270  0.72340  Biso   1.000  H
  C43      1.0000 0.65080  0.77350  0.69920  Biso   1.000  C
  C44      1.0000 0.59520  0.82450  0.74570  Biso   1.000  C
  H30      1.0000 0.53740  0.85530  0.71040  Biso   1.000  H
  C45      1.0000 0.61720  0.76880  0.59220  Biso   1.000  C
  H31      1.0000 0.57480  0.70990  0.57130  Biso   1.000  H
  H32      1.0000 0.58060  0.83060  0.56690  Biso   1.000  H
  C46      1.0000 0.74020  0.85730  0.54700  Biso   1.000  C
  H33      1.0000 0.73930  0.90310  0.59930  Biso   1.000  H
  C47      1.0000 0.68980  0.90770  0.45230  Biso   1.000  C
  C48      1.0000 0.84390  0.83150  0.55330  Biso   1.000  C
  H34      1.0000 0.87680  0.80210  0.61450  Biso   1.000  H
  H35      1.0000 0.87640  0.89330  0.54490  Biso   1.000  H
  H36      1.0000 0.84360  0.78270  0.50440  Biso   1.000  H
  Cd1      1.0000 0.00000  0.53504  0.00000  Biso   1.000  Cd
  Cd2      1.0000 0.50000  0.03504  0.00000  Biso   1.000  Cd
