data_image0
_cell_length_a       15.317
_cell_length_b       25.035
_cell_length_c       27.591
_cell_angle_alpha    90
_cell_angle_beta     102.38
_cell_angle_gamma    90

_symmetry_space_group_name_H-M    "P 1"
_symmetry_int_tables_number       1

loop_
  _symmetry_equiv_pos_as_xyz
  'x, y, z'

loop_
  _atom_site_label
  _atom_site_occupancy
  _atom_site_fract_x
  _atom_site_fract_y
  _atom_site_fract_z
  _atom_site_thermal_displace_type
  _atom_site_B_iso_or_equiv
  _atom_site_type_symbol
  Cd1      1.0000 0.69595  0.03025  0.74637  Biso   1.000  Cd
  Cd2      1.0000 0.47795  0.28411  0.76040  Biso   1.000  Cd
  N1       1.0000 0.74940  0.10180  0.79590  Biso   1.000  N
  N2       1.0000 0.78030  0.18450  0.82750  Biso   1.000  N
  N3       1.0000 0.84470  0.14870  0.84960  Biso   1.000  N
  N4       1.0000 0.91740  0.39550  0.85230  Biso   1.000  N
  N5       1.0000 0.83340  0.37510  0.83810  Biso   1.000  N
  N6       1.0000 0.84550  0.45620  0.80480  Biso   1.000  N
  N7       1.0000 0.21110  0.25120  0.79170  Biso   1.000  N
  N8       1.0000 0.25720  0.24400  0.83930  Biso   1.000  N
  N9       1.0000 0.34710  0.27470  0.78970  Biso   1.000  N
  N10      1.0000 0.61030  0.28580  0.73130  Biso   1.000  N
  N11      1.0000 0.75120  0.27660  0.72950  Biso   1.000  N
  N12      1.0000 0.70730  0.26440  0.68350  Biso   1.000  N
  N13      1.0000 0.08080  0.39700  0.66530  Biso   1.000  N
  N14      1.0000 0.15550  0.36700  0.68290  Biso   1.000  N
  N15      1.0000 0.16920  0.45020  0.71480  Biso   1.000  N
  N16      1.0000 0.08890  0.14900  0.66040  Biso   1.000  N
  N17      1.0000 0.16460  0.18040  0.67380  Biso   1.000  N
  N18      1.0000 0.19230  0.09510  0.69890  Biso   1.000  N
  C1       1.0000 0.72640  0.15420  0.79590  Biso   1.000  C
  H1       1.0000 0.67550  0.16760  0.77480  Biso   1.000  H
  C2       1.0000 0.82550  0.10040  0.83050  Biso   1.000  C
  H2       1.0000 0.86000  0.07000  0.83970  Biso   1.000  H
  C3       1.0000 0.91910  0.16620  0.88820  Biso   1.000  C
  H3       1.0000 0.96030  0.13670  0.89770  Biso   1.000  H
  H4       1.0000 0.89720  0.17700  0.91720  Biso   1.000  H
  C4       1.0000 0.96810  0.21270  0.87050  Biso   1.000  C
  C5       1.0000 0.02470  0.20260  0.83750  Biso   1.000  C
  C6       1.0000 0.06250  0.24720  0.81660  Biso   1.000  C
  C7       1.0000 0.04950  0.29890  0.83200  Biso   1.000  C
  C8       1.0000 0.99870  0.30820  0.86740  Biso   1.000  C
  C9       1.0000 0.95450  0.26450  0.88650  Biso   1.000  C
  C10      1.0000 0.89260  0.27480  0.92180  Biso   1.000  C
  H5       1.0000 0.84360  0.25010  0.91500  Biso   1.000  H
  H6       1.0000 0.87020  0.31070  0.91740  Biso   1.000  H
  H7       1.0000 0.92510  0.27020  0.95540  Biso   1.000  H
  C11      1.0000 0.04570  0.14460  0.82570  Biso   1.000  C
  H8       1.0000 0.05080  0.12310  0.85500  Biso   1.000  H
  H9       1.0000 0.10090  0.14340  0.81460  Biso   1.000  H
  H10      1.0000 0.99840  0.13090  0.80000  Biso   1.000  H
  C12      1.0000 0.11580  0.23730  0.77720  Biso   1.000  C
  H11      1.0000 0.11080  0.19980  0.76820  Biso   1.000  H
  H12      1.0000 0.08920  0.25780  0.74790  Biso   1.000  H
  C13      1.0000 0.08860  0.34470  0.80810  Biso   1.000  C
  H13      1.0000 0.06490  0.37780  0.81720  Biso   1.000  H
  H14      1.0000 0.07330  0.34070  0.77260  Biso   1.000  H
  H15      1.0000 0.15240  0.34470  0.81910  Biso   1.000  H
  C14      1.0000 0.98830  0.36430  0.88540  Biso   1.000  C
  H16      1.0000 0.97470  0.36250  0.91820  Biso   1.000  H
  H17      1.0000 0.04480  0.38300  0.88860  Biso   1.000  H
  C15      1.0000 0.92140  0.44200  0.83270  Biso   1.000  C
  H18      1.0000 0.97270  0.46290  0.83790  Biso   1.000  H
  C16      1.0000 0.79400  0.41380  0.80940  Biso   1.000  C
  H19      1.0000 0.73420  0.41200  0.79330  Biso   1.000  H
  C17      1.0000 0.26530  0.26780  0.76360  Biso   1.000  C
  H20      1.0000 0.24790  0.27390  0.72970  Biso   1.000  H
  C18      1.0000 0.33970  0.25990  0.83630  Biso   1.000  C
  H21      1.0000 0.38750  0.26070  0.86350  Biso   1.000  H
  C19      1.0000 0.62050  0.27140  0.68500  Biso   1.000  C
  H22      1.0000 0.57330  0.26700  0.65790  Biso   1.000  H
  C20      1.0000 0.69250  0.28900  0.75770  Biso   1.000  C
  H23      1.0000 0.70780  0.29860  0.79100  Biso   1.000  H
  C21      1.0000 0.84710  0.27280  0.74500  Biso   1.000  C
  H24      1.0000 0.86160  0.24050  0.76450  Biso   1.000  H
  H25      1.0000 0.86840  0.30290  0.76640  Biso   1.000  H
  C22      1.0000 0.89720  0.27180  0.70300  Biso   1.000  C
  C23      1.0000 0.92190  0.32080  0.68470  Biso   1.000  C
  C24      1.0000 0.97590  0.32150  0.64910  Biso   1.000  C
  C25      1.0000 0.00590  0.27210  0.63230  Biso   1.000  C
  C26      1.0000 0.97810  0.22390  0.64900  Biso   1.000  C
  C27      1.0000 0.92320  0.22370  0.68500  Biso   1.000  C
  C28      1.0000 0.88930  0.17090  0.70060  Biso   1.000  C
  H26      1.0000 0.93250  0.15630  0.72780  Biso   1.000  H
  H27      1.0000 0.88010  0.14650  0.67320  Biso   1.000  H
  H28      1.0000 0.83380  0.17650  0.71070  Biso   1.000  H
  C29      1.0000 0.89000  0.37330  0.70200  Biso   1.000  C
  H29      1.0000 0.93790  0.39880  0.70710  Biso   1.000  H
  H30      1.0000 0.87110  0.36780  0.73260  Biso   1.000  H
  H31      1.0000 0.84080  0.38650  0.67740  Biso   1.000  H
  C30      1.0000 0.06830  0.27320  0.59580  Biso   1.000  C
  H32      1.0000 0.08030  0.23730  0.58690  Biso   1.000  H
  H33      1.0000 0.12330  0.29040  0.61100  Biso   1.000  H
  H34      1.0000 0.04030  0.29260  0.56650  Biso   1.000  H
  C31      1.0000 0.00530  0.37430  0.63020  Biso   1.000  C
  H35      1.0000 0.02190  0.36860  0.59860  Biso   1.000  H
  H36      1.0000 0.95580  0.39940  0.62500  Biso   1.000  H
  C32      1.0000 0.09170  0.44510  0.68370  Biso   1.000  C
  H37      1.0000 0.04980  0.47230  0.67590  Biso   1.000  H
  C33      1.0000 0.20700  0.40120  0.71150  Biso   1.000  C
  H38      1.0000 0.26470  0.39280  0.72820  Biso   1.000  H
  C34      1.0000 0.00680  0.17130  0.63000  Biso   1.000  C
  H39      1.0000 0.95900  0.14550  0.62850  Biso   1.000  H
  H40      1.0000 0.01550  0.17640  0.59660  Biso   1.000  H
  C35      1.0000 0.22390  0.14550  0.69730  Biso   1.000  C
  H41      1.0000 0.28250  0.15480  0.71160  Biso   1.000  H
  C36      1.0000 0.10720  0.10020  0.67540  Biso   1.000  C
  H42      1.0000 0.06600  0.07240  0.67030  Biso   1.000  H
  Cd3      1.0000 0.80405  0.53025  0.75363  Biso   1.000  Cd
  Cd4      1.0000 0.02205  0.78411  0.73960  Biso   1.000  Cd
  N19      1.0000 0.75060  0.60180  0.70410  Biso   1.000  N
  N20      1.0000 0.71970  0.68450  0.67250  Biso   1.000  N
  N21      1.0000 0.65530  0.64870  0.65040  Biso   1.000  N
  N22      1.0000 0.58260  0.89550  0.64770  Biso   1.000  N
  N23      1.0000 0.66660  0.87510  0.66190  Biso   1.000  N
  N24      1.0000 0.65450  0.95620  0.69520  Biso   1.000  N
  N25      1.0000 0.28890  0.75120  0.70830  Biso   1.000  N
  N26      1.0000 0.24280  0.74400  0.66070  Biso   1.000  N
  N27      1.0000 0.15290  0.77470  0.71030  Biso   1.000  N
  N28      1.0000 0.88970  0.78580  0.76870  Biso   1.000  N
  N29      1.0000 0.74880  0.77660  0.77050  Biso   1.000  N
  N30      1.0000 0.79270  0.76440  0.81650  Biso   1.000  N
  N31      1.0000 0.41920  0.89700  0.83470  Biso   1.000  N
  N32      1.0000 0.34450  0.86700  0.81710  Biso   1.000  N
  N33      1.0000 0.33080  0.95020  0.78520  Biso   1.000  N
  N34      1.0000 0.41110  0.64900  0.83960  Biso   1.000  N
  N35      1.0000 0.33540  0.68040  0.82620  Biso   1.000  N
  N36      1.0000 0.30770  0.59510  0.80110  Biso   1.000  N
  C37      1.0000 0.77360  0.65420  0.70410  Biso   1.000  C
  H43      1.0000 0.82450  0.66760  0.72520  Biso   1.000  H
  C38      1.0000 0.67450  0.60040  0.66950  Biso   1.000  C
  H44      1.0000 0.64000  0.57000  0.66030  Biso   1.000  H
  C39      1.0000 0.58090  0.66620  0.61180  Biso   1.000  C
  H45      1.0000 0.53970  0.63670  0.60230  Biso   1.000  H
  H46      1.0000 0.60280  0.67700  0.58280  Biso   1.000  H
  C40      1.0000 0.53190  0.71270  0.62950  Biso   1.000  C
  C41      1.0000 0.47530  0.70260  0.66250  Biso   1.000  C
  C42      1.0000 0.43750  0.74720  0.68340  Biso   1.000  C
  C43      1.0000 0.45050  0.79890  0.66800  Biso   1.000  C
  C44      1.0000 0.50130  0.80820  0.63260  Biso   1.000  C
  C45      1.0000 0.54550  0.76450  0.61350  Biso   1.000  C
  C46      1.0000 0.60740  0.77480  0.57820  Biso   1.000  C
  H47      1.0000 0.65640  0.75010  0.58500  Biso   1.000  H
  H48      1.0000 0.62980  0.81070  0.58260  Biso   1.000  H
  H49      1.0000 0.57490  0.77020  0.54460  Biso   1.000  H
  C47      1.0000 0.45430  0.64460  0.67430  Biso   1.000  C
  H50      1.0000 0.44920  0.62310  0.64500  Biso   1.000  H
  H51      1.0000 0.39910  0.64340  0.68540  Biso   1.000  H
  H52      1.0000 0.50160  0.63090  0.70000  Biso   1.000  H
  C48      1.0000 0.38420  0.73730  0.72280  Biso   1.000  C
  H53      1.0000 0.38920  0.69980  0.73180  Biso   1.000  H
  H54      1.0000 0.41080  0.75780  0.75210  Biso   1.000  H
  C49      1.0000 0.41140  0.84470  0.69190  Biso   1.000  C
  H55      1.0000 0.43510  0.87780  0.68280  Biso   1.000  H
  H56      1.0000 0.42670  0.84070  0.72740  Biso   1.000  H
  H57      1.0000 0.34760  0.84470  0.68090  Biso   1.000  H
  C50      1.0000 0.51170  0.86430  0.61460  Biso   1.000  C
  H58      1.0000 0.52530  0.86250  0.58180  Biso   1.000  H
  H59      1.0000 0.45520  0.88300  0.61140  Biso   1.000  H
  C51      1.0000 0.57860  0.94200  0.66730  Biso   1.000  C
  H60      1.0000 0.52730  0.96290  0.66210  Biso   1.000  H
  C52      1.0000 0.70600  0.91380  0.69060  Biso   1.000  C
  H61      1.0000 0.76580  0.91200  0.70670  Biso   1.000  H
  C53      1.0000 0.23470  0.76780  0.73640  Biso   1.000  C
  H62      1.0000 0.25210  0.77390  0.77030  Biso   1.000  H
  C54      1.0000 0.16030  0.75990  0.66370  Biso   1.000  C
  H63      1.0000 0.11250  0.76070  0.63650  Biso   1.000  H
  C55      1.0000 0.87950  0.77140  0.81500  Biso   1.000  C
  H64      1.0000 0.92670  0.76700  0.84210  Biso   1.000  H
  C56      1.0000 0.80750  0.78900  0.74230  Biso   1.000  C
  H65      1.0000 0.79220  0.79860  0.70900  Biso   1.000  H
  C57      1.0000 0.65290  0.77280  0.75500  Biso   1.000  C
  H66      1.0000 0.63840  0.74050  0.73550  Biso   1.000  H
  H67      1.0000 0.63160  0.80290  0.73360  Biso   1.000  H
  C58      1.0000 0.60280  0.77180  0.79700  Biso   1.000  C
  C59      1.0000 0.57810  0.82080  0.81530  Biso   1.000  C
  C60      1.0000 0.52410  0.82150  0.85090  Biso   1.000  C
  C61      1.0000 0.49410  0.77210  0.86770  Biso   1.000  C
  C62      1.0000 0.52190  0.72390  0.85100  Biso   1.000  C
  C63      1.0000 0.57680  0.72370  0.81500  Biso   1.000  C
  C64      1.0000 0.61070  0.67090  0.79940  Biso   1.000  C
  H68      1.0000 0.56750  0.65630  0.77220  Biso   1.000  H
  H69      1.0000 0.61990  0.64650  0.82680  Biso   1.000  H
  H70      1.0000 0.66620  0.67650  0.78930  Biso   1.000  H
  C65      1.0000 0.61000  0.87330  0.79800  Biso   1.000  C
  H71      1.0000 0.56210  0.89880  0.79290  Biso   1.000  H
  H72      1.0000 0.62890  0.86780  0.76740  Biso   1.000  H
  H73      1.0000 0.65920  0.88650  0.82260  Biso   1.000  H
  C66      1.0000 0.43170  0.77320  0.90420  Biso   1.000  C
  H74      1.0000 0.41970  0.73730  0.91310  Biso   1.000  H
  H75      1.0000 0.37670  0.79040  0.88900  Biso   1.000  H
  H76      1.0000 0.45970  0.79260  0.93350  Biso   1.000  H
  C67      1.0000 0.49470  0.87430  0.86980  Biso   1.000  C
  H77      1.0000 0.47810  0.86860  0.90140  Biso   1.000  H
  H78      1.0000 0.54420  0.89940  0.87500  Biso   1.000  H
  C68      1.0000 0.40830  0.94510  0.81630  Biso   1.000  C
  H79      1.0000 0.45020  0.97230  0.82410  Biso   1.000  H
  C69      1.0000 0.29300  0.90120  0.78850  Biso   1.000  C
  H80      1.0000 0.23530  0.89280  0.77180  Biso   1.000  H
  C70      1.0000 0.49320  0.67130  0.87000  Biso   1.000  C
  H81      1.0000 0.54100  0.64550  0.87150  Biso   1.000  H
  H82      1.0000 0.48450  0.67640  0.90340  Biso   1.000  H
  C71      1.0000 0.27610  0.64550  0.80270  Biso   1.000  C
  H83      1.0000 0.21750  0.65480  0.78840  Biso   1.000  H
  C72      1.0000 0.39280  0.60020  0.82460  Biso   1.000  C
  H84      1.0000 0.43400  0.57240  0.82970  Biso   1.000  H
  Cd5      1.0000 0.23319  0.52297  0.76039  Biso   1.000  Cd
  Cd6      1.0000 0.26681  0.02297  0.73961  Biso   1.000  Cd
  Cd7      1.0000 0.76681  0.47703  0.23961  Biso   1.000  Cd
  Cd8      1.0000 0.73319  0.97703  0.26039  Biso   1.000  Cd
  Cd9      1.0000 0.30405  0.96975  0.25363  Biso   1.000  Cd
  Cd10     1.0000 0.52205  0.71589  0.23960  Biso   1.000  Cd
  N37      1.0000 0.25060  0.89820  0.20410  Biso   1.000  N
  N38      1.0000 0.21970  0.81550  0.17250  Biso   1.000  N
  N39      1.0000 0.15530  0.85130  0.15040  Biso   1.000  N
  N40      1.0000 0.08260  0.60450  0.14770  Biso   1.000  N
  N41      1.0000 0.16660  0.62490  0.16190  Biso   1.000  N
  N42      1.0000 0.15450  0.54380  0.19520  Biso   1.000  N
  N43      1.0000 0.78890  0.74880  0.20830  Biso   1.000  N
  N44      1.0000 0.74280  0.75600  0.16070  Biso   1.000  N
  N45      1.0000 0.65290  0.72530  0.21030  Biso   1.000  N
  N46      1.0000 0.38970  0.71420  0.26870  Biso   1.000  N
  N47      1.0000 0.24880  0.72340  0.27050  Biso   1.000  N
  N48      1.0000 0.29270  0.73560  0.31650  Biso   1.000  N
  N49      1.0000 0.91920  0.60300  0.33470  Biso   1.000  N
  N50      1.0000 0.84450  0.63300  0.31710  Biso   1.000  N
  N51      1.0000 0.83080  0.54980  0.28520  Biso   1.000  N
  N52      1.0000 0.91110  0.85100  0.33960  Biso   1.000  N
  N53      1.0000 0.83540  0.81960  0.32620  Biso   1.000  N
  N54      1.0000 0.80770  0.90490  0.30110  Biso   1.000  N
  C73      1.0000 0.27360  0.84580  0.20410  Biso   1.000  C
  H85      1.0000 0.32450  0.83240  0.22520  Biso   1.000  H
  C74      1.0000 0.17450  0.89960  0.16950  Biso   1.000  C
  H86      1.0000 0.14000  0.93000  0.16030  Biso   1.000  H
  C75      1.0000 0.08090  0.83380  0.11180  Biso   1.000  C
  H87      1.0000 0.03970  0.86330  0.10230  Biso   1.000  H
  H88      1.0000 0.10280  0.82300  0.08280  Biso   1.000  H
  C76      1.0000 0.03190  0.78730  0.12950  Biso   1.000  C
  C77      1.0000 0.97530  0.79740  0.16250  Biso   1.000  C
  C78      1.0000 0.93750  0.75280  0.18340  Biso   1.000  C
  C79      1.0000 0.95050  0.70110  0.16800  Biso   1.000  C
  C80      1.0000 0.00130  0.69180  0.13260  Biso   1.000  C
  C81      1.0000 0.04550  0.73550  0.11350  Biso   1.000  C
  C82      1.0000 0.10740  0.72520  0.07820  Biso   1.000  C
  H89      1.0000 0.15640  0.74990  0.08500  Biso   1.000  H
  H90      1.0000 0.12980  0.68930  0.08260  Biso   1.000  H
  H91      1.0000 0.07490  0.72980  0.04460  Biso   1.000  H
  C83      1.0000 0.95430  0.85540  0.17430  Biso   1.000  C
  H92      1.0000 0.94920  0.87690  0.14500  Biso   1.000  H
  H93      1.0000 0.89910  0.85660  0.18540  Biso   1.000  H
  H94      1.0000 0.00160  0.86910  0.20000  Biso   1.000  H
  C84      1.0000 0.88420  0.76270  0.22280  Biso   1.000  C
  H95      1.0000 0.88920  0.80020  0.23180  Biso   1.000  H
  H96      1.0000 0.91080  0.74220  0.25210  Biso   1.000  H
  C85      1.0000 0.91140  0.65530  0.19190  Biso   1.000  C
  H97      1.0000 0.93510  0.62220  0.18280  Biso   1.000  H
  H98      1.0000 0.92670  0.65930  0.22740  Biso   1.000  H
  H99      1.0000 0.84760  0.65530  0.18090  Biso   1.000  H
  C86      1.0000 0.01170  0.63570  0.11460  Biso   1.000  C
  H100     1.0000 0.02530  0.63750  0.08180  Biso   1.000  H
  H101     1.0000 0.95520  0.61700  0.11140  Biso   1.000  H
  C87      1.0000 0.07860  0.55800  0.16730  Biso   1.000  C
  H102     1.0000 0.02730  0.53710  0.16210  Biso   1.000  H
  C88      1.0000 0.20600  0.58620  0.19060  Biso   1.000  C
  H103     1.0000 0.26580  0.58800  0.20670  Biso   1.000  H
  C89      1.0000 0.73470  0.73220  0.23640  Biso   1.000  C
  H104     1.0000 0.75210  0.72610  0.27030  Biso   1.000  H
  C90      1.0000 0.66030  0.74010  0.16370  Biso   1.000  C
  H105     1.0000 0.61250  0.73930  0.13650  Biso   1.000  H
  C91      1.0000 0.37950  0.72860  0.31500  Biso   1.000  C
  H106     1.0000 0.42670  0.73300  0.34210  Biso   1.000  H
  C92      1.0000 0.30750  0.71100  0.24230  Biso   1.000  C
  H107     1.0000 0.29220  0.70140  0.20900  Biso   1.000  H
  C93      1.0000 0.15290  0.72720  0.25500  Biso   1.000  C
  H108     1.0000 0.13840  0.75950  0.23550  Biso   1.000  H
  H109     1.0000 0.13160  0.69710  0.23360  Biso   1.000  H
  C94      1.0000 0.10280  0.72820  0.29700  Biso   1.000  C
  C95      1.0000 0.07810  0.67920  0.31530  Biso   1.000  C
  C96      1.0000 0.02410  0.67850  0.35090  Biso   1.000  C
  C97      1.0000 0.99410  0.72790  0.36770  Biso   1.000  C
  C98      1.0000 0.02190  0.77610  0.35100  Biso   1.000  C
  C99      1.0000 0.07680  0.77630  0.31500  Biso   1.000  C
  C100     1.0000 0.11070  0.82910  0.29940  Biso   1.000  C
  H110     1.0000 0.06750  0.84370  0.27220  Biso   1.000  H
  H111     1.0000 0.11990  0.85350  0.32680  Biso   1.000  H
  H112     1.0000 0.16620  0.82350  0.28930  Biso   1.000  H
  C101     1.0000 0.11000  0.62670  0.29800  Biso   1.000  C
  H113     1.0000 0.06210  0.60120  0.29290  Biso   1.000  H
  H114     1.0000 0.12890  0.63220  0.26740  Biso   1.000  H
  H115     1.0000 0.15920  0.61350  0.32260  Biso   1.000  H
  C102     1.0000 0.93170  0.72680  0.40420  Biso   1.000  C
  H116     1.0000 0.91970  0.76270  0.41310  Biso   1.000  H
  H117     1.0000 0.87670  0.70960  0.38900  Biso   1.000  H
  H118     1.0000 0.95970  0.70740  0.43350  Biso   1.000  H
  C103     1.0000 0.99470  0.62570  0.36980  Biso   1.000  C
  H119     1.0000 0.97810  0.63140  0.40140  Biso   1.000  H
  H120     1.0000 0.04420  0.60060  0.37500  Biso   1.000  H
  C104     1.0000 0.90830  0.55490  0.31630  Biso   1.000  C
  H121     1.0000 0.95020  0.52770  0.32410  Biso   1.000  H
  C105     1.0000 0.79300  0.59880  0.28850  Biso   1.000  C
  H122     1.0000 0.73530  0.60720  0.27180  Biso   1.000  H
  C106     1.0000 0.99320  0.82870  0.37000  Biso   1.000  C
  H123     1.0000 0.04100  0.85450  0.37150  Biso   1.000  H
  H124     1.0000 0.98450  0.82360  0.40340  Biso   1.000  H
  C107     1.0000 0.77610  0.85450  0.30270  Biso   1.000  C
  H125     1.0000 0.71750  0.84520  0.28840  Biso   1.000  H
  C108     1.0000 0.89280  0.89980  0.32460  Biso   1.000  C
  H126     1.0000 0.93400  0.92760  0.32970  Biso   1.000  H
  Cd11     1.0000 0.19595  0.46975  0.24637  Biso   1.000  Cd
  Cd12     1.0000 0.97795  0.21589  0.26040  Biso   1.000  Cd
  N55      1.0000 0.24940  0.39820  0.29590  Biso   1.000  N
  N56      1.0000 0.28030  0.31550  0.32750  Biso   1.000  N
  N57      1.0000 0.34470  0.35130  0.34960  Biso   1.000  N
  N58      1.0000 0.41740  0.10450  0.35230  Biso   1.000  N
  N59      1.0000 0.33340  0.12490  0.33810  Biso   1.000  N
  N60      1.0000 0.34550  0.04380  0.30480  Biso   1.000  N
  N61      1.0000 0.71110  0.24880  0.29170  Biso   1.000  N
  N62      1.0000 0.75720  0.25600  0.33930  Biso   1.000  N
  N63      1.0000 0.84710  0.22530  0.28970  Biso   1.000  N
  N64      1.0000 0.11030  0.21420  0.23130  Biso   1.000  N
  N65      1.0000 0.25120  0.22340  0.22950  Biso   1.000  N
  N66      1.0000 0.20730  0.23560  0.18350  Biso   1.000  N
  N67      1.0000 0.58080  0.10300  0.16530  Biso   1.000  N
  N68      1.0000 0.65550  0.13300  0.18290  Biso   1.000  N
  N69      1.0000 0.66920  0.04980  0.21480  Biso   1.000  N
  N70      1.0000 0.58890  0.35100  0.16040  Biso   1.000  N
  N71      1.0000 0.66460  0.31960  0.17380  Biso   1.000  N
  N72      1.0000 0.69230  0.40490  0.19890  Biso   1.000  N
  C109     1.0000 0.22640  0.34580  0.29590  Biso   1.000  C
  H127     1.0000 0.17550  0.33240  0.27480  Biso   1.000  H
  C110     1.0000 0.32550  0.39960  0.33050  Biso   1.000  C
  H128     1.0000 0.36000  0.43000  0.33970  Biso   1.000  H
  C111     1.0000 0.41910  0.33380  0.38820  Biso   1.000  C
  H129     1.0000 0.46030  0.36330  0.39770  Biso   1.000  H
  H130     1.0000 0.39720  0.32300  0.41720  Biso   1.000  H
  C112     1.0000 0.46810  0.28730  0.37050  Biso   1.000  C
  C113     1.0000 0.52470  0.29740  0.33750  Biso   1.000  C
  C114     1.0000 0.56250  0.25280  0.31660  Biso   1.000  C
  C115     1.0000 0.54950  0.20110  0.33200  Biso   1.000  C
  C116     1.0000 0.49870  0.19180  0.36740  Biso   1.000  C
  C117     1.0000 0.45450  0.23550  0.38650  Biso   1.000  C
  C118     1.0000 0.39260  0.22520  0.42180  Biso   1.000  C
  H131     1.0000 0.34360  0.24990  0.41500  Biso   1.000  H
  H132     1.0000 0.37020  0.18930  0.41740  Biso   1.000  H
  H133     1.0000 0.42510  0.22980  0.45540  Biso   1.000  H
  C119     1.0000 0.54570  0.35540  0.32570  Biso   1.000  C
  H134     1.0000 0.55080  0.37690  0.35500  Biso   1.000  H
  H135     1.0000 0.60090  0.35660  0.31460  Biso   1.000  H
  H136     1.0000 0.49840  0.36910  0.30000  Biso   1.000  H
  C120     1.0000 0.61580  0.26270  0.27720  Biso   1.000  C
  H137     1.0000 0.61080  0.30020  0.26820  Biso   1.000  H
  H138     1.0000 0.58920  0.24220  0.24790  Biso   1.000  H
  C121     1.0000 0.58860  0.15530  0.30810  Biso   1.000  C
  H139     1.0000 0.56490  0.12220  0.31720  Biso   1.000  H
  H140     1.0000 0.57330  0.15930  0.27260  Biso   1.000  H
  H141     1.0000 0.65240  0.15530  0.31910  Biso   1.000  H
  C122     1.0000 0.48830  0.13570  0.38540  Biso   1.000  C
  H142     1.0000 0.47470  0.13750  0.41820  Biso   1.000  H
  H143     1.0000 0.54480  0.11700  0.38860  Biso   1.000  H
  C123     1.0000 0.42140  0.05800  0.33270  Biso   1.000  C
  H144     1.0000 0.47270  0.03710  0.33790  Biso   1.000  H
  C124     1.0000 0.29400  0.08620  0.30940  Biso   1.000  C
  H145     1.0000 0.23420  0.08800  0.29330  Biso   1.000  H
  C125     1.0000 0.76530  0.23220  0.26360  Biso   1.000  C
  H146     1.0000 0.74790  0.22610  0.22970  Biso   1.000  H
  C126     1.0000 0.83970  0.24010  0.33630  Biso   1.000  C
  H147     1.0000 0.88750  0.23930  0.36350  Biso   1.000  H
  C127     1.0000 0.12050  0.22860  0.18500  Biso   1.000  C
  H148     1.0000 0.07330  0.23300  0.15790  Biso   1.000  H
  C128     1.0000 0.19250  0.21100  0.25770  Biso   1.000  C
  H149     1.0000 0.20780  0.20140  0.29100  Biso   1.000  H
  C129     1.0000 0.34710  0.22720  0.24500  Biso   1.000  C
  H150     1.0000 0.36160  0.25950  0.26450  Biso   1.000  H
  H151     1.0000 0.36840  0.19710  0.26640  Biso   1.000  H
  C130     1.0000 0.39720  0.22820  0.20300  Biso   1.000  C
  C131     1.0000 0.42190  0.17920  0.18470  Biso   1.000  C
  C132     1.0000 0.47590  0.17850  0.14910  Biso   1.000  C
  C133     1.0000 0.50590  0.22790  0.13230  Biso   1.000  C
  C134     1.0000 0.47810  0.27610  0.14900  Biso   1.000  C
  C135     1.0000 0.42320  0.27630  0.18500  Biso   1.000  C
  C136     1.0000 0.38930  0.32910  0.20060  Biso   1.000  C
  H152     1.0000 0.43250  0.34370  0.22780  Biso   1.000  H
  H153     1.0000 0.38010  0.35350  0.17320  Biso   1.000  H
  H154     1.0000 0.33380  0.32350  0.21070  Biso   1.000  H
  C137     1.0000 0.39000  0.12670  0.20200  Biso   1.000  C
  H155     1.0000 0.43790  0.10120  0.20710  Biso   1.000  H
  H156     1.0000 0.37110  0.13220  0.23260  Biso   1.000  H
  H157     1.0000 0.34080  0.11350  0.17740  Biso   1.000  H
  C138     1.0000 0.56830  0.22680  0.09580  Biso   1.000  C
  H158     1.0000 0.58030  0.26270  0.08690  Biso   1.000  H
  H159     1.0000 0.62330  0.20960  0.11100  Biso   1.000  H
  H160     1.0000 0.54030  0.20740  0.06650  Biso   1.000  H
  C139     1.0000 0.50530  0.12570  0.13020  Biso   1.000  C
  H161     1.0000 0.52190  0.13140  0.09860  Biso   1.000  H
  H162     1.0000 0.45580  0.10060  0.12500  Biso   1.000  H
  C140     1.0000 0.59170  0.05490  0.18370  Biso   1.000  C
  H163     1.0000 0.54980  0.02770  0.17590  Biso   1.000  H
  C141     1.0000 0.70700  0.09880  0.21150  Biso   1.000  C
  H164     1.0000 0.76470  0.10720  0.22820  Biso   1.000  H
  C142     1.0000 0.50680  0.32870  0.13000  Biso   1.000  C
  H165     1.0000 0.45900  0.35450  0.12850  Biso   1.000  H
  H166     1.0000 0.51550  0.32360  0.09660  Biso   1.000  H
  C143     1.0000 0.72390  0.35450  0.19730  Biso   1.000  C
  H167     1.0000 0.78250  0.34520  0.21160  Biso   1.000  H
  C144     1.0000 0.60720  0.39980  0.17540  Biso   1.000  C
  H168     1.0000 0.56600  0.42760  0.17030  Biso   1.000  H
