data_image0
_cell_length_a       8.407
_cell_length_b       9.5233
_cell_length_c       9.5433
_cell_angle_alpha    108.386
_cell_angle_beta     115.524
_cell_angle_gamma    90.175

_symmetry_space_group_name_H-M    "P 1"
_symmetry_int_tables_number       1

loop_
  _symmetry_equiv_pos_as_xyz
  'x, y, z'

loop_
  _atom_site_label
  _atom_site_occupancy
  _atom_site_fract_x
  _atom_site_fract_y
  _atom_site_fract_z
  _atom_site_thermal_displace_type
  _atom_site_B_iso_or_equiv
  _atom_site_type_symbol
  C1       1.0000 0.38440  0.09170  0.11020  Biso   1.000  C
  H1       1.0000 0.49340  0.05900  0.17290  Biso   1.000  H
  H2       1.0000 0.34970  0.04270  0.99310  Biso   1.000  H
  C2       1.0000 0.24000  0.04950  0.14780  Biso   1.000  C
  H3       1.0000 0.13080  0.07990  0.08190  Biso   1.000  H
  H4       1.0000 0.21810  0.94130  0.11600  Biso   1.000  H
  C3       1.0000 0.45350  0.33750  0.33000  Biso   1.000  C
  H5       1.0000 0.45670  0.44410  0.34990  Biso   1.000  H
  H6       1.0000 0.57010  0.32290  0.40330  Biso   1.000  H
  C4       1.0000 0.31640  0.28360  0.36950  Biso   1.000  C
  H7       1.0000 0.35410  0.33090  0.48730  Biso   1.000  H
  H8       1.0000 0.20470  0.31520  0.31090  Biso   1.000  H
  C5       1.0000 0.12840  0.08310  0.34980  Biso   1.000  C
  H9       1.0000 0.02050  0.09510  0.26230  Biso   1.000  H
  H10      1.0000 0.14180  0.15300  0.45480  Biso   1.000  H
  C6       1.0000 0.11020  0.92600  0.34870  Biso   1.000  C
  H11      1.0000 0.00480  0.90450  0.36060  Biso   1.000  H
  H12      1.0000 0.09700  0.85540  0.24410  Biso   1.000  H
  N1       1.0000 0.41590  0.25730  0.15500  Biso   1.000  N
  H13      1.0000 0.50800  0.28300  0.14030  Biso   1.000  H
  H14      1.0000 0.32010  0.28510  0.08800  Biso   1.000  H
  N2       1.0000 0.28480  0.11920  0.32530  Biso   1.000  N
  N3       1.0000 0.27020  0.91030  0.48640  Biso   1.000  N
  H15      1.0000 0.27140  0.81360  0.47300  Biso   1.000  H
  H16      1.0000 0.26570  0.95610  0.58130  Biso   1.000  H
  C7       1.0000 0.61560  0.90830  0.88980  Biso   1.000  C
  H17      1.0000 0.50660  0.94100  0.82710  Biso   1.000  H
  H18      1.0000 0.65030  0.95730  0.00690  Biso   1.000  H
  C8       1.0000 0.76000  0.95050  0.85220  Biso   1.000  C
  H19      1.0000 0.86920  0.92010  0.91810  Biso   1.000  H
  H20      1.0000 0.78190  0.05870  0.88400  Biso   1.000  H
  C9       1.0000 0.54650  0.66250  0.67000  Biso   1.000  C
  H21      1.0000 0.54330  0.55590  0.65010  Biso   1.000  H
  H22      1.0000 0.42990  0.67710  0.59670  Biso   1.000  H
  C10      1.0000 0.68360  0.71640  0.63050  Biso   1.000  C
  H23      1.0000 0.64590  0.66910  0.51270  Biso   1.000  H
  H24      1.0000 0.79530  0.68480  0.68910  Biso   1.000  H
  C11      1.0000 0.87160  0.91690  0.65020  Biso   1.000  C
  H25      1.0000 0.97950  0.90490  0.73770  Biso   1.000  H
  H26      1.0000 0.85820  0.84700  0.54520  Biso   1.000  H
  C12      1.0000 0.88980  0.07400  0.65130  Biso   1.000  C
  H27      1.0000 0.99520  0.09550  0.63940  Biso   1.000  H
  H28      1.0000 0.90300  0.14460  0.75590  Biso   1.000  H
  N4       1.0000 0.58410  0.74270  0.84500  Biso   1.000  N
  H29      1.0000 0.49200  0.71700  0.85970  Biso   1.000  H
  H30      1.0000 0.67990  0.71490  0.91200  Biso   1.000  H
  N5       1.0000 0.71520  0.88080  0.67470  Biso   1.000  N
  N6       1.0000 0.72980  0.08970  0.51360  Biso   1.000  N
  H31      1.0000 0.72860  0.18640  0.52700  Biso   1.000  H
  H32      1.0000 0.73430  0.04390  0.41870  Biso   1.000  H
  Zn1      1.0000 0.50000  0.00000  0.50000  Biso   1.000  Zn
