data_image0
_cell_length_a       29.999
_cell_length_b       29.999
_cell_length_c       29.999
_cell_angle_alpha    90
_cell_angle_beta     90
_cell_angle_gamma    90

_symmetry_space_group_name_H-M    "P 1"
_symmetry_int_tables_number       1

loop_
  _symmetry_equiv_pos_as_xyz
  'x, y, z'

loop_
  _atom_site_label
  _atom_site_occupancy
  _atom_site_fract_x
  _atom_site_fract_y
  _atom_site_fract_z
  _atom_site_thermal_displace_type
  _atom_site_B_iso_or_equiv
  _atom_site_type_symbol
  Zr1      1.0000 0.00000  0.58455  0.50000  Biso   1.000  Zr
  Zr2      1.0000 0.00000  0.41545  0.50000  Biso   1.000  Zr
  Zr3      1.0000 0.00000  0.50000  0.58455  Biso   1.000  Zr
  Zr4      1.0000 0.00000  0.50000  0.41545  Biso   1.000  Zr
  Zr5      1.0000 0.08455  0.50000  0.50000  Biso   1.000  Zr
  Zr6      1.0000 0.91545  0.50000  0.50000  Biso   1.000  Zr
  O1       1.0000 0.03676  0.53676  0.53676  Biso   1.000  O
  O2       1.0000 0.96324  0.46324  0.53676  Biso   1.000  O
  O3       1.0000 0.96324  0.53676  0.46324  Biso   1.000  O
  O4       1.0000 0.03676  0.46324  0.46324  Biso   1.000  O
  O5       1.0000 0.96324  0.53676  0.53676  Biso   1.000  O
  O6       1.0000 0.03676  0.53676  0.46324  Biso   1.000  O
  O7       1.0000 0.96324  0.46324  0.46324  Biso   1.000  O
  O8       1.0000 0.03676  0.46324  0.53676  Biso   1.000  O
  O9       1.0000 0.00000  0.60759  0.57726  Biso   1.000  O
  O10      1.0000 0.00000  0.39241  0.57726  Biso   1.000  O
  O11      1.0000 0.00000  0.60759  0.42274  Biso   1.000  O
  O12      1.0000 0.00000  0.39241  0.42274  Biso   1.000  O
  O13      1.0000 0.07726  0.50000  0.60759  Biso   1.000  O
  O14      1.0000 0.07726  0.50000  0.39241  Biso   1.000  O
  O15      1.0000 0.92274  0.50000  0.60759  Biso   1.000  O
  O16      1.0000 0.92274  0.50000  0.39241  Biso   1.000  O
  O17      1.0000 0.10759  0.57726  0.50000  Biso   1.000  O
  O18      1.0000 0.89241  0.57726  0.50000  Biso   1.000  O
  O19      1.0000 0.10759  0.42274  0.50000  Biso   1.000  O
  O20      1.0000 0.89241  0.42274  0.50000  Biso   1.000  O
  O21      1.0000 0.10759  0.50000  0.42274  Biso   1.000  O
  O22      1.0000 0.89241  0.50000  0.42274  Biso   1.000  O
  O23      1.0000 0.10759  0.50000  0.57726  Biso   1.000  O
  O24      1.0000 0.89241  0.50000  0.57726  Biso   1.000  O
  O25      1.0000 0.00000  0.57726  0.39241  Biso   1.000  O
  O26      1.0000 0.00000  0.57726  0.60759  Biso   1.000  O
  O27      1.0000 0.00000  0.42274  0.39241  Biso   1.000  O
  O28      1.0000 0.00000  0.42274  0.60759  Biso   1.000  O
  O29      1.0000 0.07726  0.60759  0.50000  Biso   1.000  O
  O30      1.0000 0.07726  0.39241  0.50000  Biso   1.000  O
  O31      1.0000 0.92274  0.60759  0.50000  Biso   1.000  O
  O32      1.0000 0.92274  0.39241  0.50000  Biso   1.000  O
  C1       1.0000 0.00000  0.60611  0.60611  Biso   1.000  C
  C2       1.0000 0.00000  0.39389  0.60611  Biso   1.000  C
  C3       1.0000 0.00000  0.60611  0.39389  Biso   1.000  C
  C4       1.0000 0.00000  0.39389  0.39389  Biso   1.000  C
  C5       1.0000 0.10611  0.50000  0.60611  Biso   1.000  C
  C6       1.0000 0.10611  0.50000  0.39389  Biso   1.000  C
  C7       1.0000 0.89389  0.50000  0.60611  Biso   1.000  C
  C8       1.0000 0.89389  0.50000  0.39389  Biso   1.000  C
  C9       1.0000 0.10611  0.60611  0.50000  Biso   1.000  C
  C10      1.0000 0.89389  0.60611  0.50000  Biso   1.000  C
  C11      1.0000 0.10611  0.39389  0.50000  Biso   1.000  C
  C12      1.0000 0.89389  0.39389  0.50000  Biso   1.000  C
  Zr7      1.0000 0.00000  0.08455  0.00000  Biso   1.000  Zr
  Zr8      1.0000 0.00000  0.91545  0.00000  Biso   1.000  Zr
  Zr9      1.0000 0.08455  0.00000  0.00000  Biso   1.000  Zr
  Zr10     1.0000 0.91545  0.00000  0.00000  Biso   1.000  Zr
  Zr11     1.0000 0.00000  0.00000  0.91545  Biso   1.000  Zr
  Zr12     1.0000 0.00000  0.00000  0.08455  Biso   1.000  Zr
  O33      1.0000 0.03676  0.03676  0.03676  Biso   1.000  O
  O34      1.0000 0.96324  0.96324  0.03676  Biso   1.000  O
  O35      1.0000 0.96324  0.03676  0.96324  Biso   1.000  O
  O36      1.0000 0.03676  0.96324  0.96324  Biso   1.000  O
  O37      1.0000 0.96324  0.96324  0.96324  Biso   1.000  O
  O38      1.0000 0.03676  0.03676  0.96324  Biso   1.000  O
  O39      1.0000 0.96324  0.03676  0.03676  Biso   1.000  O
  O40      1.0000 0.03676  0.96324  0.03676  Biso   1.000  O
  O41      1.0000 0.00000  0.10759  0.07726  Biso   1.000  O
  O42      1.0000 0.00000  0.89241  0.07726  Biso   1.000  O
  O43      1.0000 0.00000  0.10759  0.92274  Biso   1.000  O
  O44      1.0000 0.00000  0.89241  0.92274  Biso   1.000  O
  O45      1.0000 0.07726  0.00000  0.10759  Biso   1.000  O
  O46      1.0000 0.07726  0.00000  0.89241  Biso   1.000  O
  O47      1.0000 0.92274  0.00000  0.10759  Biso   1.000  O
  O48      1.0000 0.92274  0.00000  0.89241  Biso   1.000  O
  O49      1.0000 0.10759  0.07726  0.00000  Biso   1.000  O
  O50      1.0000 0.89241  0.07726  0.00000  Biso   1.000  O
  O51      1.0000 0.10759  0.92274  0.00000  Biso   1.000  O
  O52      1.0000 0.89241  0.92274  0.00000  Biso   1.000  O
  O53      1.0000 0.10759  0.00000  0.92274  Biso   1.000  O
  O54      1.0000 0.89241  0.00000  0.92274  Biso   1.000  O
  O55      1.0000 0.10759  0.00000  0.07726  Biso   1.000  O
  O56      1.0000 0.89241  0.00000  0.07726  Biso   1.000  O
  O57      1.0000 0.00000  0.07726  0.89241  Biso   1.000  O
  O58      1.0000 0.00000  0.07726  0.10759  Biso   1.000  O
  O59      1.0000 0.00000  0.92274  0.89241  Biso   1.000  O
  O60      1.0000 0.00000  0.92274  0.10759  Biso   1.000  O
  O61      1.0000 0.07726  0.10759  0.00000  Biso   1.000  O
  O62      1.0000 0.07726  0.89241  0.00000  Biso   1.000  O
  O63      1.0000 0.92274  0.10759  0.00000  Biso   1.000  O
  O64      1.0000 0.92274  0.89241  0.00000  Biso   1.000  O
  C13      1.0000 0.00000  0.10611  0.10611  Biso   1.000  C
  C14      1.0000 0.00000  0.89389  0.10611  Biso   1.000  C
  C15      1.0000 0.00000  0.10611  0.89389  Biso   1.000  C
  C16      1.0000 0.00000  0.89389  0.89389  Biso   1.000  C
  C17      1.0000 0.10611  0.00000  0.10611  Biso   1.000  C
  C18      1.0000 0.10611  0.00000  0.89389  Biso   1.000  C
  C19      1.0000 0.89389  0.00000  0.10611  Biso   1.000  C
  C20      1.0000 0.89389  0.00000  0.89389  Biso   1.000  C
  C21      1.0000 0.10611  0.10611  0.00000  Biso   1.000  C
  C22      1.0000 0.89389  0.10611  0.00000  Biso   1.000  C
  C23      1.0000 0.10611  0.89389  0.00000  Biso   1.000  C
  C24      1.0000 0.89389  0.89389  0.00000  Biso   1.000  C
  Zr13     1.0000 0.50000  0.08455  0.50000  Biso   1.000  Zr
  Zr14     1.0000 0.50000  0.91545  0.50000  Biso   1.000  Zr
  Zr15     1.0000 0.50000  0.00000  0.58455  Biso   1.000  Zr
  Zr16     1.0000 0.50000  0.00000  0.41545  Biso   1.000  Zr
  Zr17     1.0000 0.58455  0.00000  0.50000  Biso   1.000  Zr
  Zr18     1.0000 0.41545  0.00000  0.50000  Biso   1.000  Zr
  O65      1.0000 0.53676  0.96324  0.46324  Biso   1.000  O
  O66      1.0000 0.53676  0.03676  0.53676  Biso   1.000  O
  O67      1.0000 0.46324  0.96324  0.53676  Biso   1.000  O
  O68      1.0000 0.46324  0.03676  0.46324  Biso   1.000  O
  O69      1.0000 0.53676  0.03676  0.46324  Biso   1.000  O
  O70      1.0000 0.46324  0.96324  0.46324  Biso   1.000  O
  O71      1.0000 0.53676  0.96324  0.53676  Biso   1.000  O
  O72      1.0000 0.46324  0.03676  0.53676  Biso   1.000  O
  O73      1.0000 0.50000  0.10759  0.57726  Biso   1.000  O
  O74      1.0000 0.50000  0.89241  0.57726  Biso   1.000  O
  O75      1.0000 0.50000  0.10759  0.42274  Biso   1.000  O
  O76      1.0000 0.50000  0.89241  0.42274  Biso   1.000  O
  O77      1.0000 0.57726  0.00000  0.60759  Biso   1.000  O
  O78      1.0000 0.57726  0.00000  0.39241  Biso   1.000  O
  O79      1.0000 0.42274  0.00000  0.60759  Biso   1.000  O
  O80      1.0000 0.42274  0.00000  0.39241  Biso   1.000  O
  O81      1.0000 0.60759  0.07726  0.50000  Biso   1.000  O
  O82      1.0000 0.39241  0.07726  0.50000  Biso   1.000  O
  O83      1.0000 0.60759  0.92274  0.50000  Biso   1.000  O
  O84      1.0000 0.39241  0.92274  0.50000  Biso   1.000  O
  O85      1.0000 0.60759  0.00000  0.42274  Biso   1.000  O
  O86      1.0000 0.39241  0.00000  0.42274  Biso   1.000  O
  O87      1.0000 0.60759  0.00000  0.57726  Biso   1.000  O
  O88      1.0000 0.39241  0.00000  0.57726  Biso   1.000  O
  O89      1.0000 0.50000  0.07726  0.39241  Biso   1.000  O
  O90      1.0000 0.50000  0.07726  0.60759  Biso   1.000  O
  O91      1.0000 0.50000  0.92274  0.39241  Biso   1.000  O
  O92      1.0000 0.50000  0.92274  0.60759  Biso   1.000  O
  O93      1.0000 0.57726  0.10759  0.50000  Biso   1.000  O
  O94      1.0000 0.57726  0.89241  0.50000  Biso   1.000  O
  O95      1.0000 0.42274  0.10759  0.50000  Biso   1.000  O
  O96      1.0000 0.42274  0.89241  0.50000  Biso   1.000  O
  C25      1.0000 0.50000  0.10611  0.60611  Biso   1.000  C
  C26      1.0000 0.50000  0.89389  0.60611  Biso   1.000  C
  C27      1.0000 0.50000  0.10611  0.39389  Biso   1.000  C
  C28      1.0000 0.50000  0.89389  0.39389  Biso   1.000  C
  C29      1.0000 0.60611  0.00000  0.60611  Biso   1.000  C
  C30      1.0000 0.60611  0.00000  0.39389  Biso   1.000  C
  C31      1.0000 0.39389  0.00000  0.60611  Biso   1.000  C
  C32      1.0000 0.39389  0.00000  0.39389  Biso   1.000  C
  C33      1.0000 0.60611  0.10611  0.50000  Biso   1.000  C
  C34      1.0000 0.39389  0.10611  0.50000  Biso   1.000  C
  C35      1.0000 0.60611  0.89389  0.50000  Biso   1.000  C
  C36      1.0000 0.39389  0.89389  0.50000  Biso   1.000  C
  Zr19     1.0000 0.50000  0.58455  0.00000  Biso   1.000  Zr
  Zr20     1.0000 0.50000  0.41545  0.00000  Biso   1.000  Zr
  Zr21     1.0000 0.50000  0.50000  0.08455  Biso   1.000  Zr
  Zr22     1.0000 0.50000  0.50000  0.91545  Biso   1.000  Zr
  Zr23     1.0000 0.58455  0.50000  0.00000  Biso   1.000  Zr
  Zr24     1.0000 0.41545  0.50000  0.00000  Biso   1.000  Zr
  O97      1.0000 0.53676  0.46324  0.96324  Biso   1.000  O
  O98      1.0000 0.46324  0.53676  0.96324  Biso   1.000  O
  O99      1.0000 0.53676  0.53676  0.03676  Biso   1.000  O
  O100     1.0000 0.46324  0.46324  0.03676  Biso   1.000  O
  O101     1.0000 0.53676  0.53676  0.96324  Biso   1.000  O
  O102     1.0000 0.53676  0.46324  0.03676  Biso   1.000  O
  O103     1.0000 0.46324  0.53676  0.03676  Biso   1.000  O
  O104     1.0000 0.46324  0.46324  0.96324  Biso   1.000  O
  O105     1.0000 0.50000  0.60759  0.07726  Biso   1.000  O
  O106     1.0000 0.50000  0.39241  0.07726  Biso   1.000  O
  O107     1.0000 0.50000  0.60759  0.92274  Biso   1.000  O
  O108     1.0000 0.50000  0.39241  0.92274  Biso   1.000  O
  O109     1.0000 0.57726  0.50000  0.10759  Biso   1.000  O
  O110     1.0000 0.57726  0.50000  0.89241  Biso   1.000  O
  O111     1.0000 0.42274  0.50000  0.10759  Biso   1.000  O
  O112     1.0000 0.42274  0.50000  0.89241  Biso   1.000  O
  O113     1.0000 0.60759  0.57726  0.00000  Biso   1.000  O
  O114     1.0000 0.39241  0.57726  0.00000  Biso   1.000  O
  O115     1.0000 0.60759  0.42274  0.00000  Biso   1.000  O
  O116     1.0000 0.39241  0.42274  0.00000  Biso   1.000  O
  O117     1.0000 0.60759  0.50000  0.92274  Biso   1.000  O
  O118     1.0000 0.39241  0.50000  0.92274  Biso   1.000  O
  O119     1.0000 0.60759  0.50000  0.07726  Biso   1.000  O
  O120     1.0000 0.39241  0.50000  0.07726  Biso   1.000  O
  O121     1.0000 0.50000  0.57726  0.89241  Biso   1.000  O
  O122     1.0000 0.50000  0.57726  0.10759  Biso   1.000  O
  O123     1.0000 0.50000  0.42274  0.89241  Biso   1.000  O
  O124     1.0000 0.50000  0.42274  0.10759  Biso   1.000  O
  O125     1.0000 0.57726  0.60759  0.00000  Biso   1.000  O
  O126     1.0000 0.57726  0.39241  0.00000  Biso   1.000  O
  O127     1.0000 0.42274  0.60759  0.00000  Biso   1.000  O
  O128     1.0000 0.42274  0.39241  0.00000  Biso   1.000  O
  C37      1.0000 0.50000  0.60611  0.10611  Biso   1.000  C
  C38      1.0000 0.50000  0.39389  0.10611  Biso   1.000  C
  C39      1.0000 0.50000  0.60611  0.89389  Biso   1.000  C
  C40      1.0000 0.50000  0.39389  0.89389  Biso   1.000  C
  C41      1.0000 0.60611  0.50000  0.10611  Biso   1.000  C
  C42      1.0000 0.60611  0.50000  0.89389  Biso   1.000  C
  C43      1.0000 0.39389  0.50000  0.10611  Biso   1.000  C
  C44      1.0000 0.39389  0.50000  0.89389  Biso   1.000  C
  C45      1.0000 0.60611  0.60611  0.00000  Biso   1.000  C
  C46      1.0000 0.39389  0.60611  0.00000  Biso   1.000  C
  C47      1.0000 0.60611  0.39389  0.00000  Biso   1.000  C
  C48      1.0000 0.39389  0.39389  0.00000  Biso   1.000  C
