data_image0
_cell_length_a       18.2679
_cell_length_b       18.2679
_cell_length_c       15.9522
_cell_angle_alpha    90
_cell_angle_beta     90
_cell_angle_gamma    90

_symmetry_space_group_name_H-M    "P 1"
_symmetry_int_tables_number       1

loop_
  _symmetry_equiv_pos_as_xyz
  'x, y, z'

loop_
  _atom_site_label
  _atom_site_occupancy
  _atom_site_fract_x
  _atom_site_fract_y
  _atom_site_fract_z
  _atom_site_thermal_displace_type
  _atom_site_B_iso_or_equiv
  _atom_site_type_symbol
  N1       1.0000 0.31048  0.34192  0.69538  Biso   1.000  N
  C1       1.0000 0.34920  0.44960  0.76720  Biso   1.000  C
  H1       1.0000 0.34270  0.48160  0.81190  Biso   1.000  H
  C2       1.0000 0.40190  0.46160  0.71040  Biso   1.000  C
  C3       1.0000 0.30460  0.38890  0.75850  Biso   1.000  C
  H2       1.0000 0.26870  0.38060  0.79870  Biso   1.000  H
  C4       1.0000 0.36020  0.35660  0.63690  Biso   1.000  C
  H3       1.0000 0.36360  0.32580  0.59060  Biso   1.000  H
  C5       1.0000 0.40660  0.41510  0.64190  Biso   1.000  C
  H4       1.0000 0.44090  0.42350  0.59990  Biso   1.000  H
  O1       1.0000 0.46420  0.55990  0.62970  Biso   1.000  O
  C6       1.0000 0.45350  0.52330  0.71340  Biso   1.000  C
  H5       1.0000 0.46950  0.54550  0.66420  Biso   1.000  H
  O2       1.0000 0.53360  0.53450  0.57950  Biso   1.000  O
  N2       1.0000 0.18952  0.15808  0.69538  Biso   1.000  N
  C7       1.0000 0.15080  0.05040  0.76720  Biso   1.000  C
  H6       1.0000 0.15730  0.01840  0.81190  Biso   1.000  H
  C8       1.0000 0.09810  0.03840  0.71040  Biso   1.000  C
  C9       1.0000 0.19540  0.11110  0.75850  Biso   1.000  C
  H7       1.0000 0.23130  0.11940  0.79870  Biso   1.000  H
  C10      1.0000 0.13980  0.14340  0.63690  Biso   1.000  C
  H8       1.0000 0.13640  0.17420  0.59060  Biso   1.000  H
  C11      1.0000 0.09340  0.08490  0.64190  Biso   1.000  C
  H9       1.0000 0.05910  0.07650  0.59990  Biso   1.000  H
  O3       1.0000 0.03580  0.94010  0.62970  Biso   1.000  O
  C12      1.0000 0.04650  0.97670  0.71340  Biso   1.000  C
  H10      1.0000 0.03050  0.95450  0.66420  Biso   1.000  H
  O4       1.0000 0.96640  0.96550  0.57950  Biso   1.000  O
  N3       1.0000 0.15808  0.31048  0.69538  Biso   1.000  N
  C13      1.0000 0.05040  0.34920  0.76720  Biso   1.000  C
  H11      1.0000 0.01840  0.34270  0.81190  Biso   1.000  H
  C14      1.0000 0.03840  0.40190  0.71040  Biso   1.000  C
  C15      1.0000 0.11110  0.30460  0.75850  Biso   1.000  C
  H12      1.0000 0.11940  0.26870  0.79870  Biso   1.000  H
  C16      1.0000 0.14340  0.36020  0.63690  Biso   1.000  C
  H13      1.0000 0.17420  0.36360  0.59060  Biso   1.000  H
  C17      1.0000 0.08490  0.40660  0.64190  Biso   1.000  C
  H14      1.0000 0.07650  0.44090  0.59990  Biso   1.000  H
  O5       1.0000 0.94010  0.46420  0.62970  Biso   1.000  O
  C18      1.0000 0.97670  0.45350  0.71340  Biso   1.000  C
  H15      1.0000 0.95450  0.46950  0.66420  Biso   1.000  H
  O6       1.0000 0.96550  0.53360  0.57950  Biso   1.000  O
  N4       1.0000 0.34192  0.18952  0.69538  Biso   1.000  N
  C19      1.0000 0.44960  0.15080  0.76720  Biso   1.000  C
  H16      1.0000 0.48160  0.15730  0.81190  Biso   1.000  H
  C20      1.0000 0.46160  0.09810  0.71040  Biso   1.000  C
  C21      1.0000 0.38890  0.19540  0.75850  Biso   1.000  C
  H17      1.0000 0.38060  0.23130  0.79870  Biso   1.000  H
  C22      1.0000 0.35660  0.13980  0.63690  Biso   1.000  C
  H18      1.0000 0.32580  0.13640  0.59060  Biso   1.000  H
  C23      1.0000 0.41510  0.09340  0.64190  Biso   1.000  C
  H19      1.0000 0.42350  0.05910  0.59990  Biso   1.000  H
  O7       1.0000 0.55990  0.03580  0.62970  Biso   1.000  O
  C24      1.0000 0.52330  0.04650  0.71340  Biso   1.000  C
  H20      1.0000 0.54550  0.03050  0.66420  Biso   1.000  H
  O8       1.0000 0.53450  0.96640  0.57950  Biso   1.000  O
  N5       1.0000 0.68952  0.84192  0.80462  Biso   1.000  N
  C25      1.0000 0.65080  0.94960  0.73280  Biso   1.000  C
  H21      1.0000 0.65730  0.98160  0.68810  Biso   1.000  H
  C26      1.0000 0.59810  0.96160  0.78960  Biso   1.000  C
  C27      1.0000 0.69540  0.88890  0.74150  Biso   1.000  C
  H22      1.0000 0.73130  0.88060  0.70130  Biso   1.000  H
  C28      1.0000 0.63980  0.85660  0.86310  Biso   1.000  C
  H23      1.0000 0.63640  0.82580  0.90940  Biso   1.000  H
  C29      1.0000 0.59340  0.91510  0.85810  Biso   1.000  C
  H24      1.0000 0.55910  0.92350  0.90010  Biso   1.000  H
  O9       1.0000 0.53580  0.05990  0.87030  Biso   1.000  O
  C30      1.0000 0.54650  0.02330  0.78660  Biso   1.000  C
  H25      1.0000 0.53050  0.04550  0.83580  Biso   1.000  H
  O10      1.0000 0.46640  0.03450  0.92050  Biso   1.000  O
  N6       1.0000 0.81048  0.65808  0.80462  Biso   1.000  N
  C31      1.0000 0.84920  0.55040  0.73280  Biso   1.000  C
  H26      1.0000 0.84270  0.51840  0.68810  Biso   1.000  H
  C32      1.0000 0.90190  0.53840  0.78960  Biso   1.000  C
  C33      1.0000 0.80460  0.61110  0.74150  Biso   1.000  C
  H27      1.0000 0.76870  0.61940  0.70130  Biso   1.000  H
  C34      1.0000 0.86020  0.64340  0.86310  Biso   1.000  C
  H28      1.0000 0.86360  0.67420  0.90940  Biso   1.000  H
  C35      1.0000 0.90660  0.58490  0.85810  Biso   1.000  C
  H29      1.0000 0.94090  0.57650  0.90010  Biso   1.000  H
  O11      1.0000 0.96420  0.44010  0.87030  Biso   1.000  O
  C36      1.0000 0.95350  0.47670  0.78660  Biso   1.000  C
  H30      1.0000 0.96950  0.45450  0.83580  Biso   1.000  H
  O12      1.0000 0.03360  0.46550  0.92050  Biso   1.000  O
  N7       1.0000 0.84192  0.81048  0.80462  Biso   1.000  N
  C37      1.0000 0.94960  0.84920  0.73280  Biso   1.000  C
  H31      1.0000 0.98160  0.84270  0.68810  Biso   1.000  H
  C38      1.0000 0.96160  0.90190  0.78960  Biso   1.000  C
  C39      1.0000 0.88890  0.80460  0.74150  Biso   1.000  C
  H32      1.0000 0.88060  0.76870  0.70130  Biso   1.000  H
  C40      1.0000 0.85660  0.86020  0.86310  Biso   1.000  C
  H33      1.0000 0.82580  0.86360  0.90940  Biso   1.000  H
  C41      1.0000 0.91510  0.90660  0.85810  Biso   1.000  C
  H34      1.0000 0.92350  0.94090  0.90010  Biso   1.000  H
  O13      1.0000 0.05990  0.96420  0.87030  Biso   1.000  O
  C42      1.0000 0.02330  0.95350  0.78660  Biso   1.000  C
  H35      1.0000 0.04550  0.96950  0.83580  Biso   1.000  H
  O14      1.0000 0.03450  0.03360  0.92050  Biso   1.000  O
  N8       1.0000 0.65808  0.68952  0.80462  Biso   1.000  N
  C43      1.0000 0.55040  0.65080  0.73280  Biso   1.000  C
  H36      1.0000 0.51840  0.65730  0.68810  Biso   1.000  H
  C44      1.0000 0.53840  0.59810  0.78960  Biso   1.000  C
  C45      1.0000 0.61110  0.69540  0.74150  Biso   1.000  C
  H37      1.0000 0.61940  0.73130  0.70130  Biso   1.000  H
  C46      1.0000 0.64340  0.63980  0.86310  Biso   1.000  C
  H38      1.0000 0.67420  0.63640  0.90940  Biso   1.000  H
  C47      1.0000 0.58490  0.59340  0.85810  Biso   1.000  C
  H39      1.0000 0.57650  0.55910  0.90010  Biso   1.000  H
  O15      1.0000 0.44010  0.53580  0.87030  Biso   1.000  O
  C48      1.0000 0.47670  0.54650  0.78660  Biso   1.000  C
  H40      1.0000 0.45450  0.53050  0.83580  Biso   1.000  H
  O16      1.0000 0.46550  0.46640  0.92050  Biso   1.000  O
  Cu1      1.0000 0.25000  0.25000  0.69252  Biso   1.000  Cu
  Cu2      1.0000 0.75000  0.75000  0.80748  Biso   1.000  Cu
  N9       1.0000 0.68952  0.65808  0.30462  Biso   1.000  N
  C49      1.0000 0.65080  0.55040  0.23280  Biso   1.000  C
  H41      1.0000 0.65730  0.51840  0.18810  Biso   1.000  H
  C50      1.0000 0.59810  0.53840  0.28960  Biso   1.000  C
  C51      1.0000 0.69540  0.61110  0.24150  Biso   1.000  C
  H42      1.0000 0.73130  0.61940  0.20130  Biso   1.000  H
  C52      1.0000 0.63980  0.64340  0.36310  Biso   1.000  C
  H43      1.0000 0.63640  0.67420  0.40940  Biso   1.000  H
  C53      1.0000 0.59340  0.58490  0.35810  Biso   1.000  C
  H44      1.0000 0.55910  0.57650  0.40010  Biso   1.000  H
  O17      1.0000 0.53580  0.44010  0.37030  Biso   1.000  O
  C54      1.0000 0.54650  0.47670  0.28660  Biso   1.000  C
  H45      1.0000 0.53050  0.45450  0.33580  Biso   1.000  H
  O18      1.0000 0.46640  0.46550  0.42050  Biso   1.000  O
  N10      1.0000 0.81048  0.84192  0.30462  Biso   1.000  N
  C55      1.0000 0.84920  0.94960  0.23280  Biso   1.000  C
  H46      1.0000 0.84270  0.98160  0.18810  Biso   1.000  H
  C56      1.0000 0.90190  0.96160  0.28960  Biso   1.000  C
  C57      1.0000 0.80460  0.88890  0.24150  Biso   1.000  C
  H47      1.0000 0.76870  0.88060  0.20130  Biso   1.000  H
  C58      1.0000 0.86020  0.85660  0.36310  Biso   1.000  C
  H48      1.0000 0.86360  0.82580  0.40940  Biso   1.000  H
  C59      1.0000 0.90660  0.91510  0.35810  Biso   1.000  C
  H49      1.0000 0.94090  0.92350  0.40010  Biso   1.000  H
  O19      1.0000 0.96420  0.05990  0.37030  Biso   1.000  O
  C60      1.0000 0.95350  0.02330  0.28660  Biso   1.000  C
  H50      1.0000 0.96950  0.04550  0.33580  Biso   1.000  H
  O20      1.0000 0.03360  0.03450  0.42050  Biso   1.000  O
  N11      1.0000 0.84192  0.68952  0.30462  Biso   1.000  N
  C61      1.0000 0.94960  0.65080  0.23280  Biso   1.000  C
  H51      1.0000 0.98160  0.65730  0.18810  Biso   1.000  H
  C62      1.0000 0.96160  0.59810  0.28960  Biso   1.000  C
  C63      1.0000 0.88890  0.69540  0.24150  Biso   1.000  C
  H52      1.0000 0.88060  0.73130  0.20130  Biso   1.000  H
  C64      1.0000 0.85660  0.63980  0.36310  Biso   1.000  C
  H53      1.0000 0.82580  0.63640  0.40940  Biso   1.000  H
  C65      1.0000 0.91510  0.59340  0.35810  Biso   1.000  C
  H54      1.0000 0.92350  0.55910  0.40010  Biso   1.000  H
  O21      1.0000 0.05990  0.53580  0.37030  Biso   1.000  O
  C66      1.0000 0.02330  0.54650  0.28660  Biso   1.000  C
  H55      1.0000 0.04550  0.53050  0.33580  Biso   1.000  H
  O22      1.0000 0.03450  0.46640  0.42050  Biso   1.000  O
  N12      1.0000 0.65808  0.81048  0.30462  Biso   1.000  N
  C67      1.0000 0.55040  0.84920  0.23280  Biso   1.000  C
  H56      1.0000 0.51840  0.84270  0.18810  Biso   1.000  H
  C68      1.0000 0.53840  0.90190  0.28960  Biso   1.000  C
  C69      1.0000 0.61110  0.80460  0.24150  Biso   1.000  C
  H57      1.0000 0.61940  0.76870  0.20130  Biso   1.000  H
  C70      1.0000 0.64340  0.86020  0.36310  Biso   1.000  C
  H58      1.0000 0.67420  0.86360  0.40940  Biso   1.000  H
  C71      1.0000 0.58490  0.90660  0.35810  Biso   1.000  C
  H59      1.0000 0.57650  0.94090  0.40010  Biso   1.000  H
  O23      1.0000 0.44010  0.96420  0.37030  Biso   1.000  O
  C72      1.0000 0.47670  0.95350  0.28660  Biso   1.000  C
  H60      1.0000 0.45450  0.96950  0.33580  Biso   1.000  H
  O24      1.0000 0.46550  0.03360  0.42050  Biso   1.000  O
  N13      1.0000 0.31048  0.15808  0.19538  Biso   1.000  N
  C73      1.0000 0.34920  0.05040  0.26720  Biso   1.000  C
  H61      1.0000 0.34270  0.01840  0.31190  Biso   1.000  H
  C74      1.0000 0.40190  0.03840  0.21040  Biso   1.000  C
  C75      1.0000 0.30460  0.11110  0.25850  Biso   1.000  C
  H62      1.0000 0.26870  0.11940  0.29870  Biso   1.000  H
  C76      1.0000 0.36020  0.14340  0.13690  Biso   1.000  C
  H63      1.0000 0.36360  0.17420  0.09060  Biso   1.000  H
  C77      1.0000 0.40660  0.08490  0.14190  Biso   1.000  C
  H64      1.0000 0.44090  0.07650  0.09990  Biso   1.000  H
  O25      1.0000 0.46420  0.94010  0.12970  Biso   1.000  O
  C78      1.0000 0.45350  0.97670  0.21340  Biso   1.000  C
  H65      1.0000 0.46950  0.95450  0.16420  Biso   1.000  H
  O26      1.0000 0.53360  0.96550  0.07950  Biso   1.000  O
  N14      1.0000 0.18952  0.34192  0.19538  Biso   1.000  N
  C79      1.0000 0.15080  0.44960  0.26720  Biso   1.000  C
  H66      1.0000 0.15730  0.48160  0.31190  Biso   1.000  H
  C80      1.0000 0.09810  0.46160  0.21040  Biso   1.000  C
  C81      1.0000 0.19540  0.38890  0.25850  Biso   1.000  C
  H67      1.0000 0.23130  0.38060  0.29870  Biso   1.000  H
  C82      1.0000 0.13980  0.35660  0.13690  Biso   1.000  C
  H68      1.0000 0.13640  0.32580  0.09060  Biso   1.000  H
  C83      1.0000 0.09340  0.41510  0.14190  Biso   1.000  C
  H69      1.0000 0.05910  0.42350  0.09990  Biso   1.000  H
  O27      1.0000 0.03580  0.55990  0.12970  Biso   1.000  O
  C84      1.0000 0.04650  0.52330  0.21340  Biso   1.000  C
  H70      1.0000 0.03050  0.54550  0.16420  Biso   1.000  H
  O28      1.0000 0.96640  0.53450  0.07950  Biso   1.000  O
  N15      1.0000 0.15808  0.18952  0.19538  Biso   1.000  N
  C85      1.0000 0.05040  0.15080  0.26720  Biso   1.000  C
  H71      1.0000 0.01840  0.15730  0.31190  Biso   1.000  H
  C86      1.0000 0.03840  0.09810  0.21040  Biso   1.000  C
  C87      1.0000 0.11110  0.19540  0.25850  Biso   1.000  C
  H72      1.0000 0.11940  0.23130  0.29870  Biso   1.000  H
  C88      1.0000 0.14340  0.13980  0.13690  Biso   1.000  C
  H73      1.0000 0.17420  0.13640  0.09060  Biso   1.000  H
  C89      1.0000 0.08490  0.09340  0.14190  Biso   1.000  C
  H74      1.0000 0.07650  0.05910  0.09990  Biso   1.000  H
  O29      1.0000 0.94010  0.03580  0.12970  Biso   1.000  O
  C90      1.0000 0.97670  0.04650  0.21340  Biso   1.000  C
  H75      1.0000 0.95450  0.03050  0.16420  Biso   1.000  H
  O30      1.0000 0.96550  0.96640  0.07950  Biso   1.000  O
  N16      1.0000 0.34192  0.31048  0.19538  Biso   1.000  N
  C91      1.0000 0.44960  0.34920  0.26720  Biso   1.000  C
  H76      1.0000 0.48160  0.34270  0.31190  Biso   1.000  H
  C92      1.0000 0.46160  0.40190  0.21040  Biso   1.000  C
  C93      1.0000 0.38890  0.30460  0.25850  Biso   1.000  C
  H77      1.0000 0.38060  0.26870  0.29870  Biso   1.000  H
  C94      1.0000 0.35660  0.36020  0.13690  Biso   1.000  C
  H78      1.0000 0.32580  0.36360  0.09060  Biso   1.000  H
  C95      1.0000 0.41510  0.40660  0.14190  Biso   1.000  C
  H79      1.0000 0.42350  0.44090  0.09990  Biso   1.000  H
  O31      1.0000 0.55990  0.46420  0.12970  Biso   1.000  O
  C96      1.0000 0.52330  0.45350  0.21340  Biso   1.000  C
  H80      1.0000 0.54550  0.46950  0.16420  Biso   1.000  H
  O32      1.0000 0.53450  0.53360  0.07950  Biso   1.000  O
  Cu3      1.0000 0.75000  0.75000  0.30748  Biso   1.000  Cu
  Cu4      1.0000 0.25000  0.25000  0.19252  Biso   1.000  Cu
