data_image0
_cell_length_a       14.7871
_cell_length_b       25.536
_cell_length_c       29.6432
_cell_angle_alpha    90
_cell_angle_beta     115.616
_cell_angle_gamma    90

_symmetry_space_group_name_H-M    "P 1"
_symmetry_int_tables_number       1

loop_
  _symmetry_equiv_pos_as_xyz
  'x, y, z'

loop_
  _atom_site_label
  _atom_site_occupancy
  _atom_site_fract_x
  _atom_site_fract_y
  _atom_site_fract_z
  _atom_site_thermal_displace_type
  _atom_site_B_iso_or_equiv
  _atom_site_type_symbol
  Cu1      1.0000 0.00444  0.71810  0.74419  Biso   1.000  Cu
  Cu2      1.0000 0.18696  0.52287  0.43857  Biso   1.000  Cu
  C1       1.0000 0.93880  0.77880  0.81460  Biso   1.000  C
  H1       1.0000 0.98930  0.76570  0.84390  Biso   1.000  H
  C2       1.0000 0.83950  0.78870  0.73860  Biso   1.000  C
  H2       1.0000 0.80740  0.78540  0.70400  Biso   1.000  H
  C3       1.0000 0.73320  0.86150  0.74730  Biso   1.000  C
  H3       1.0000 0.72410  0.87620  0.77520  Biso   1.000  H
  H4       1.0000 0.67040  0.84560  0.72450  Biso   1.000  H
  C4       1.0000 0.76170  0.90560  0.72000  Biso   1.000  C
  C5       1.0000 0.85940  0.92510  0.73940  Biso   1.000  C
  H5       1.0000 0.90860  0.91160  0.76890  Biso   1.000  H
  C6       1.0000 0.88240  0.96500  0.71390  Biso   1.000  C
  C7       1.0000 0.81010  0.98400  0.67020  Biso   1.000  C
  H6       1.0000 0.82530  0.01100  0.65350  Biso   1.000  H
  C8       1.0000 0.71460  0.96340  0.65070  Biso   1.000  C
  H7       1.0000 0.66630  0.97630  0.62060  Biso   1.000  H
  C9       1.0000 0.68880  0.92350  0.67520  Biso   1.000  C
  H8       1.0000 0.62440  0.90940  0.66170  Biso   1.000  H
  C10      1.0000 0.98770  0.98480  0.73280  Biso   1.000  C
  H9       1.0000 0.98850  0.01570  0.71390  Biso   1.000  H
  H10      1.0000 0.02900  0.95830  0.72740  Biso   1.000  H
  C11      1.0000 0.04210  0.03680  0.85120  Biso   1.000  C
  H11      1.0000 0.03200  0.06040  0.87250  Biso   1.000  H
  C12      1.0000 0.10000  0.97390  0.82640  Biso   1.000  C
  H12      1.0000 0.13610  0.94460  0.82500  Biso   1.000  H
  C13      1.0000 0.15490  0.63700  0.75150  Biso   1.000  C
  H13      1.0000 0.17210  0.63170  0.78520  Biso   1.000  H
  C14      1.0000 0.09160  0.66500  0.67760  Biso   1.000  C
  H14      1.0000 0.05340  0.68520  0.64980  Biso   1.000  H
  C15      1.0000 0.25490  0.56270  0.73790  Biso   1.000  C
  H15      1.0000 0.21560  0.53300  0.71930  Biso   1.000  H
  H16      1.0000 0.27680  0.55550  0.77320  Biso   1.000  H
  C16      1.0000 0.34440  0.56840  0.72770  Biso   1.000  C
  C17      1.0000 0.35000  0.54180  0.68910  Biso   1.000  C
  H17      1.0000 0.29770  0.52000  0.66890  Biso   1.000  H
  C18      1.0000 0.43620  0.54760  0.67990  Biso   1.000  C
  C19      1.0000 0.51460  0.57770  0.71170  Biso   1.000  C
  H18      1.0000 0.57150  0.58120  0.70610  Biso   1.000  H
  C20      1.0000 0.51030  0.60250  0.75160  Biso   1.000  C
  H19      1.0000 0.56490  0.62220  0.77290  Biso   1.000  H
  C21      1.0000 0.42720  0.59900  0.76090  Biso   1.000  C
  H20      1.0000 0.42500  0.61610  0.78800  Biso   1.000  H
  C22      1.0000 0.44250  0.51830  0.63730  Biso   1.000  C
  H21      1.0000 0.50870  0.52290  0.63860  Biso   1.000  H
  H22      1.0000 0.43240  0.48120  0.64060  Biso   1.000  H
  C23      1.0000 0.32670  0.51060  0.54590  Biso   1.000  C
  H23      1.0000 0.34110  0.47590  0.54210  Biso   1.000  H
  C24      1.0000 0.26750  0.58800  0.53340  Biso   1.000  C
  H24      1.0000 0.23100  0.61750  0.51730  Biso   1.000  H
  C25      1.0000 0.09540  0.13960  0.71740  Biso   1.000  C
  H25      1.0000 0.06090  0.15220  0.68500  Biso   1.000  H
  C26      1.0000 0.14640  0.12620  0.79360  Biso   1.000  C
  H26      1.0000 0.15420  0.12880  0.82640  Biso   1.000  H
  C27      1.0000 0.20900  0.07750  0.70000  Biso   1.000  C
  H27      1.0000 0.28040  0.07230  0.71980  Biso   1.000  H
  H28      1.0000 0.20030  0.10010  0.67210  Biso   1.000  H
  C28      1.0000 0.15960  0.02440  0.67970  Biso   1.000  C
  C29      1.0000 0.06850  0.02350  0.63950  Biso   1.000  C
  H29      1.0000 0.03750  0.05470  0.62470  Biso   1.000  H
  C30      1.0000 0.02230  0.97660  0.62090  Biso   1.000  C
  H30      1.0000 0.95950  0.97640  0.59360  Biso   1.000  H
  C31      1.0000 0.06670  0.92980  0.64160  Biso   1.000  C
  H31      1.0000 0.03390  0.89840  0.62880  Biso   1.000  H
  C32      1.0000 0.16060  0.92980  0.68170  Biso   1.000  C
  C33      1.0000 0.20610  0.97730  0.70200  Biso   1.000  C
  H32      1.0000 0.26720  0.97780  0.73030  Biso   1.000  H
  C34      1.0000 0.21330  0.87980  0.70420  Biso   1.000  C
  H33      1.0000 0.22370  0.85980  0.67900  Biso   1.000  H
  H34      1.0000 0.27850  0.88770  0.73100  Biso   1.000  H
  C35      1.0000 0.12420  0.79900  0.71420  Biso   1.000  C
  H35      1.0000 0.13190  0.77770  0.69060  Biso   1.000  H
  C36      1.0000 0.08620  0.82950  0.76950  Biso   1.000  C
  H36      1.0000 0.05950  0.83200  0.79260  Biso   1.000  H
  N1       1.0000 0.92030  0.76100  0.76910  Biso   1.000  N
  N2       1.0000 0.81230  0.82150  0.76560  Biso   1.000  N
  N3       1.0000 0.87740  0.81730  0.81370  Biso   1.000  N
  N4       1.0000 0.11040  0.99760  0.86800  Biso   1.000  N
  N5       1.0000 0.03040  0.99800  0.78650  Biso   1.000  N
  N6       1.0000 0.99150  0.03870  0.80270  Biso   1.000  N
  N7       1.0000 0.09150  0.67240  0.72310  Biso   1.000  N
  N8       1.0000 0.19080  0.60980  0.72430  Biso   1.000  N
  N9       1.0000 0.14930  0.62740  0.67640  Biso   1.000  N
  N10      1.0000 0.26350  0.54150  0.50960  Biso   1.000  N
  N11      1.0000 0.36540  0.53740  0.58830  Biso   1.000  N
  N12      1.0000 0.32760  0.58650  0.58080  Biso   1.000  N
  N13      1.0000 0.07990  0.15490  0.75620  Biso   1.000  N
  N14      1.0000 0.16650  0.10390  0.73140  Biso   1.000  N
  N15      1.0000 0.19940  0.09400  0.78020  Biso   1.000  N
  N16      1.0000 0.07940  0.78450  0.74320  Biso   1.000  N
  N17      1.0000 0.13220  0.86860  0.76030  Biso   1.000  N
  N18      1.0000 0.15540  0.84780  0.72410  Biso   1.000  N
  Cu3      1.0000 0.99556  0.21810  0.75581  Biso   1.000  Cu
  Cu4      1.0000 0.81304  0.02287  0.06143  Biso   1.000  Cu
  C37      1.0000 0.06120  0.27880  0.68540  Biso   1.000  C
  H37      1.0000 0.01070  0.26570  0.65610  Biso   1.000  H
  C38      1.0000 0.16050  0.28870  0.76140  Biso   1.000  C
  H38      1.0000 0.19260  0.28540  0.79600  Biso   1.000  H
  C39      1.0000 0.26680  0.36150  0.75270  Biso   1.000  C
  H39      1.0000 0.27590  0.37620  0.72480  Biso   1.000  H
  H40      1.0000 0.32960  0.34560  0.77550  Biso   1.000  H
  C40      1.0000 0.23830  0.40560  0.78000  Biso   1.000  C
  C41      1.0000 0.14060  0.42510  0.76060  Biso   1.000  C
  H41      1.0000 0.09140  0.41160  0.73110  Biso   1.000  H
  C42      1.0000 0.11760  0.46500  0.78610  Biso   1.000  C
  C43      1.0000 0.18990  0.48400  0.82980  Biso   1.000  C
  H42      1.0000 0.17470  0.51100  0.84650  Biso   1.000  H
  C44      1.0000 0.28540  0.46340  0.84930  Biso   1.000  C
  H43      1.0000 0.33370  0.47630  0.87940  Biso   1.000  H
  C45      1.0000 0.31120  0.42350  0.82480  Biso   1.000  C
  H44      1.0000 0.37560  0.40940  0.83830  Biso   1.000  H
  C46      1.0000 0.01230  0.48480  0.76720  Biso   1.000  C
  H45      1.0000 0.01150  0.51570  0.78610  Biso   1.000  H
  H46      1.0000 0.97100  0.45830  0.77260  Biso   1.000  H
  C47      1.0000 0.95790  0.53680  0.64880  Biso   1.000  C
  H47      1.0000 0.96800  0.56040  0.62750  Biso   1.000  H
  C48      1.0000 0.90000  0.47390  0.67360  Biso   1.000  C
  H48      1.0000 0.86390  0.44460  0.67500  Biso   1.000  H
  C49      1.0000 0.84510  0.13700  0.74850  Biso   1.000  C
  H49      1.0000 0.82790  0.13170  0.71480  Biso   1.000  H
  C50      1.0000 0.90840  0.16500  0.82240  Biso   1.000  C
  H50      1.0000 0.94660  0.18520  0.85020  Biso   1.000  H
  C51      1.0000 0.74510  0.06270  0.76210  Biso   1.000  C
  H51      1.0000 0.78440  0.03300  0.78070  Biso   1.000  H
  H52      1.0000 0.72320  0.05550  0.72680  Biso   1.000  H
  C52      1.0000 0.65560  0.06840  0.77230  Biso   1.000  C
  C53      1.0000 0.65000  0.04180  0.81090  Biso   1.000  C
  H53      1.0000 0.70230  0.02000  0.83110  Biso   1.000  H
  C54      1.0000 0.56380  0.04760  0.82010  Biso   1.000  C
  C55      1.0000 0.48540  0.07770  0.78830  Biso   1.000  C
  H54      1.0000 0.42850  0.08120  0.79390  Biso   1.000  H
  C56      1.0000 0.48970  0.10250  0.74840  Biso   1.000  C
  H55      1.0000 0.43510  0.12220  0.72710  Biso   1.000  H
  C57      1.0000 0.57280  0.09900  0.73910  Biso   1.000  C
  H56      1.0000 0.57500  0.11610  0.71200  Biso   1.000  H
  C58      1.0000 0.55750  0.01830  0.86270  Biso   1.000  C
  H57      1.0000 0.49130  0.02290  0.86140  Biso   1.000  H
  H58      1.0000 0.56760  0.98120  0.85940  Biso   1.000  H
  C59      1.0000 0.67330  0.01060  0.95410  Biso   1.000  C
  H59      1.0000 0.65890  0.97590  0.95790  Biso   1.000  H
  C60      1.0000 0.73250  0.08800  0.96660  Biso   1.000  C
  H60      1.0000 0.76900  0.11750  0.98270  Biso   1.000  H
  C61      1.0000 0.90460  0.63960  0.78260  Biso   1.000  C
  H61      1.0000 0.93910  0.65220  0.81500  Biso   1.000  H
  C62      1.0000 0.85360  0.62620  0.70640  Biso   1.000  C
  H62      1.0000 0.84580  0.62880  0.67360  Biso   1.000  H
  C63      1.0000 0.79100  0.57750  0.80000  Biso   1.000  C
  H63      1.0000 0.71960  0.57230  0.78020  Biso   1.000  H
  H64      1.0000 0.79970  0.60010  0.82790  Biso   1.000  H
  C64      1.0000 0.84040  0.52440  0.82030  Biso   1.000  C
  C65      1.0000 0.93150  0.52350  0.86050  Biso   1.000  C
  H65      1.0000 0.96250  0.55470  0.87530  Biso   1.000  H
  C66      1.0000 0.97770  0.47660  0.87910  Biso   1.000  C
  H66      1.0000 0.04050  0.47640  0.90640  Biso   1.000  H
  C67      1.0000 0.93330  0.42980  0.85840  Biso   1.000  C
  H67      1.0000 0.96610  0.39840  0.87120  Biso   1.000  H
  C68      1.0000 0.83940  0.42980  0.81830  Biso   1.000  C
  C69      1.0000 0.79390  0.47730  0.79800  Biso   1.000  C
  H68      1.0000 0.73280  0.47780  0.76970  Biso   1.000  H
  C70      1.0000 0.78670  0.37980  0.79580  Biso   1.000  C
  H69      1.0000 0.77630  0.35980  0.82100  Biso   1.000  H
  H70      1.0000 0.72150  0.38770  0.76900  Biso   1.000  H
  C71      1.0000 0.87580  0.29900  0.78580  Biso   1.000  C
  H71      1.0000 0.86810  0.27770  0.80940  Biso   1.000  H
  C72      1.0000 0.91380  0.32950  0.73050  Biso   1.000  C
  H72      1.0000 0.94050  0.33200  0.70740  Biso   1.000  H
  N19      1.0000 0.07970  0.26100  0.73090  Biso   1.000  N
  N20      1.0000 0.18770  0.32150  0.73440  Biso   1.000  N
  N21      1.0000 0.12260  0.31730  0.68630  Biso   1.000  N
  N22      1.0000 0.88960  0.49760  0.63200  Biso   1.000  N
  N23      1.0000 0.96960  0.49800  0.71350  Biso   1.000  N
  N24      1.0000 0.00850  0.53870  0.69730  Biso   1.000  N
  N25      1.0000 0.90850  0.17240  0.77690  Biso   1.000  N
  N26      1.0000 0.80920  0.10980  0.77570  Biso   1.000  N
  N27      1.0000 0.85070  0.12740  0.82360  Biso   1.000  N
  N28      1.0000 0.73650  0.04150  0.99040  Biso   1.000  N
  N29      1.0000 0.63460  0.03740  0.91170  Biso   1.000  N
  N30      1.0000 0.67240  0.08650  0.91920  Biso   1.000  N
  N31      1.0000 0.92010  0.65490  0.74380  Biso   1.000  N
  N32      1.0000 0.83350  0.60390  0.76860  Biso   1.000  N
  N33      1.0000 0.80060  0.59400  0.71980  Biso   1.000  N
  N34      1.0000 0.92060  0.28450  0.75680  Biso   1.000  N
  N35      1.0000 0.86780  0.36860  0.73970  Biso   1.000  N
  N36      1.0000 0.84460  0.34780  0.77590  Biso   1.000  N
  Cu5      1.0000 0.99556  0.28190  0.25581  Biso   1.000  Cu
  Cu6      1.0000 0.81304  0.47713  0.56143  Biso   1.000  Cu
  C73      1.0000 0.06120  0.22120  0.18540  Biso   1.000  C
  H73      1.0000 0.01070  0.23430  0.15610  Biso   1.000  H
  C74      1.0000 0.16050  0.21130  0.26140  Biso   1.000  C
  H74      1.0000 0.19260  0.21460  0.29600  Biso   1.000  H
  C75      1.0000 0.26680  0.13850  0.25270  Biso   1.000  C
  H75      1.0000 0.27590  0.12380  0.22480  Biso   1.000  H
  H76      1.0000 0.32960  0.15440  0.27550  Biso   1.000  H
  C76      1.0000 0.23830  0.09440  0.28000  Biso   1.000  C
  C77      1.0000 0.14060  0.07490  0.26060  Biso   1.000  C
  H77      1.0000 0.09140  0.08840  0.23110  Biso   1.000  H
  C78      1.0000 0.11760  0.03500  0.28610  Biso   1.000  C
  C79      1.0000 0.18990  0.01600  0.32980  Biso   1.000  C
  H78      1.0000 0.17470  0.98900  0.34650  Biso   1.000  H
  C80      1.0000 0.28540  0.03660  0.34930  Biso   1.000  C
  H79      1.0000 0.33370  0.02370  0.37940  Biso   1.000  H
  C81      1.0000 0.31120  0.07650  0.32480  Biso   1.000  C
  H80      1.0000 0.37560  0.09060  0.33830  Biso   1.000  H
  C82      1.0000 0.01230  0.01520  0.26720  Biso   1.000  C
  H81      1.0000 0.01150  0.98430  0.28610  Biso   1.000  H
  H82      1.0000 0.97100  0.04170  0.27260  Biso   1.000  H
  C83      1.0000 0.95790  0.96320  0.14880  Biso   1.000  C
  H83      1.0000 0.96800  0.93960  0.12750  Biso   1.000  H
  C84      1.0000 0.90000  0.02610  0.17360  Biso   1.000  C
  H84      1.0000 0.86390  0.05540  0.17500  Biso   1.000  H
  C85      1.0000 0.84510  0.36300  0.24850  Biso   1.000  C
  H85      1.0000 0.82790  0.36830  0.21480  Biso   1.000  H
  C86      1.0000 0.90840  0.33500  0.32240  Biso   1.000  C
  H86      1.0000 0.94660  0.31480  0.35020  Biso   1.000  H
  C87      1.0000 0.74510  0.43730  0.26210  Biso   1.000  C
  H87      1.0000 0.78440  0.46700  0.28070  Biso   1.000  H
  H88      1.0000 0.72320  0.44450  0.22680  Biso   1.000  H
  C88      1.0000 0.65560  0.43160  0.27230  Biso   1.000  C
  C89      1.0000 0.65000  0.45820  0.31090  Biso   1.000  C
  H89      1.0000 0.70230  0.48000  0.33110  Biso   1.000  H
  C90      1.0000 0.56380  0.45240  0.32010  Biso   1.000  C
  C91      1.0000 0.48540  0.42230  0.28830  Biso   1.000  C
  H90      1.0000 0.42850  0.41880  0.29390  Biso   1.000  H
  C92      1.0000 0.48970  0.39750  0.24840  Biso   1.000  C
  H91      1.0000 0.43510  0.37780  0.22710  Biso   1.000  H
  C93      1.0000 0.57280  0.40100  0.23910  Biso   1.000  C
  H92      1.0000 0.57500  0.38390  0.21200  Biso   1.000  H
  C94      1.0000 0.55750  0.48170  0.36270  Biso   1.000  C
  H93      1.0000 0.49130  0.47710  0.36140  Biso   1.000  H
  H94      1.0000 0.56760  0.51880  0.35940  Biso   1.000  H
  C95      1.0000 0.67330  0.48940  0.45410  Biso   1.000  C
  H95      1.0000 0.65890  0.52410  0.45790  Biso   1.000  H
  C96      1.0000 0.73250  0.41200  0.46660  Biso   1.000  C
  H96      1.0000 0.76900  0.38250  0.48270  Biso   1.000  H
  C97      1.0000 0.90460  0.86040  0.28260  Biso   1.000  C
  H97      1.0000 0.93910  0.84780  0.31500  Biso   1.000  H
  C98      1.0000 0.85360  0.87380  0.20640  Biso   1.000  C
  H98      1.0000 0.84580  0.87120  0.17360  Biso   1.000  H
  C99      1.0000 0.79100  0.92250  0.30000  Biso   1.000  C
  H99      1.0000 0.71960  0.92770  0.28020  Biso   1.000  H
  H100     1.0000 0.79970  0.89990  0.32790  Biso   1.000  H
  C100     1.0000 0.84040  0.97560  0.32030  Biso   1.000  C
  C101     1.0000 0.93150  0.97650  0.36050  Biso   1.000  C
  H101     1.0000 0.96250  0.94530  0.37530  Biso   1.000  H
  C102     1.0000 0.97770  0.02340  0.37910  Biso   1.000  C
  H102     1.0000 0.04050  0.02360  0.40640  Biso   1.000  H
  C103     1.0000 0.93330  0.07020  0.35840  Biso   1.000  C
  H103     1.0000 0.96610  0.10160  0.37120  Biso   1.000  H
  C104     1.0000 0.83940  0.07020  0.31830  Biso   1.000  C
  C105     1.0000 0.79390  0.02270  0.29800  Biso   1.000  C
  H104     1.0000 0.73280  0.02220  0.26970  Biso   1.000  H
  C106     1.0000 0.78670  0.12020  0.29580  Biso   1.000  C
  H105     1.0000 0.77630  0.14020  0.32100  Biso   1.000  H
  H106     1.0000 0.72150  0.11230  0.26900  Biso   1.000  H
  C107     1.0000 0.87580  0.20100  0.28580  Biso   1.000  C
  H107     1.0000 0.86810  0.22230  0.30940  Biso   1.000  H
  C108     1.0000 0.91380  0.17050  0.23050  Biso   1.000  C
  H108     1.0000 0.94050  0.16800  0.20740  Biso   1.000  H
  N37      1.0000 0.07970  0.23900  0.23090  Biso   1.000  N
  N38      1.0000 0.18770  0.17850  0.23440  Biso   1.000  N
  N39      1.0000 0.12260  0.18270  0.18630  Biso   1.000  N
  N40      1.0000 0.88960  0.00240  0.13200  Biso   1.000  N
  N41      1.0000 0.96960  0.00200  0.21350  Biso   1.000  N
  N42      1.0000 0.00850  0.96130  0.19730  Biso   1.000  N
  N43      1.0000 0.90850  0.32760  0.27690  Biso   1.000  N
  N44      1.0000 0.80920  0.39020  0.27570  Biso   1.000  N
  N45      1.0000 0.85070  0.37260  0.32360  Biso   1.000  N
  N46      1.0000 0.73650  0.45850  0.49040  Biso   1.000  N
  N47      1.0000 0.63460  0.46260  0.41170  Biso   1.000  N
  N48      1.0000 0.67240  0.41350  0.41920  Biso   1.000  N
  N49      1.0000 0.92010  0.84510  0.24380  Biso   1.000  N
  N50      1.0000 0.83350  0.89610  0.26860  Biso   1.000  N
  N51      1.0000 0.80060  0.90600  0.21980  Biso   1.000  N
  N52      1.0000 0.92060  0.21550  0.25680  Biso   1.000  N
  N53      1.0000 0.86780  0.13140  0.23970  Biso   1.000  N
  N54      1.0000 0.84460  0.15220  0.27590  Biso   1.000  N
  Cu7      1.0000 0.00444  0.78190  0.24419  Biso   1.000  Cu
  Cu8      1.0000 0.18696  0.97713  0.93857  Biso   1.000  Cu
  C109     1.0000 0.93880  0.72120  0.31460  Biso   1.000  C
  H109     1.0000 0.98930  0.73430  0.34390  Biso   1.000  H
  C110     1.0000 0.83950  0.71130  0.23860  Biso   1.000  C
  H110     1.0000 0.80740  0.71460  0.20400  Biso   1.000  H
  C111     1.0000 0.73320  0.63850  0.24730  Biso   1.000  C
  H111     1.0000 0.72410  0.62380  0.27520  Biso   1.000  H
  H112     1.0000 0.67040  0.65440  0.22450  Biso   1.000  H
  C112     1.0000 0.76170  0.59440  0.22000  Biso   1.000  C
  C113     1.0000 0.85940  0.57490  0.23940  Biso   1.000  C
  H113     1.0000 0.90860  0.58840  0.26890  Biso   1.000  H
  C114     1.0000 0.88240  0.53500  0.21390  Biso   1.000  C
  C115     1.0000 0.81010  0.51600  0.17020  Biso   1.000  C
  H114     1.0000 0.82530  0.48900  0.15350  Biso   1.000  H
  C116     1.0000 0.71460  0.53660  0.15070  Biso   1.000  C
  H115     1.0000 0.66630  0.52370  0.12060  Biso   1.000  H
  C117     1.0000 0.68880  0.57650  0.17520  Biso   1.000  C
  H116     1.0000 0.62440  0.59060  0.16170  Biso   1.000  H
  C118     1.0000 0.98770  0.51520  0.23280  Biso   1.000  C
  H117     1.0000 0.98850  0.48430  0.21390  Biso   1.000  H
  H118     1.0000 0.02900  0.54170  0.22740  Biso   1.000  H
  C119     1.0000 0.04210  0.46320  0.35120  Biso   1.000  C
  H119     1.0000 0.03200  0.43960  0.37250  Biso   1.000  H
  C120     1.0000 0.10000  0.52610  0.32640  Biso   1.000  C
  H120     1.0000 0.13610  0.55540  0.32500  Biso   1.000  H
  C121     1.0000 0.15490  0.86300  0.25150  Biso   1.000  C
  H121     1.0000 0.17210  0.86830  0.28520  Biso   1.000  H
  C122     1.0000 0.09160  0.83500  0.17760  Biso   1.000  C
  H122     1.0000 0.05340  0.81480  0.14980  Biso   1.000  H
  C123     1.0000 0.25490  0.93730  0.23790  Biso   1.000  C
  H123     1.0000 0.21560  0.96700  0.21930  Biso   1.000  H
  H124     1.0000 0.27680  0.94450  0.27320  Biso   1.000  H
  C124     1.0000 0.34440  0.93160  0.22770  Biso   1.000  C
  C125     1.0000 0.35000  0.95820  0.18910  Biso   1.000  C
  H125     1.0000 0.29770  0.98000  0.16890  Biso   1.000  H
  C126     1.0000 0.43620  0.95240  0.17990  Biso   1.000  C
  C127     1.0000 0.51460  0.92230  0.21170  Biso   1.000  C
  H126     1.0000 0.57150  0.91880  0.20610  Biso   1.000  H
  C128     1.0000 0.51030  0.89750  0.25160  Biso   1.000  C
  H127     1.0000 0.56490  0.87780  0.27290  Biso   1.000  H
  C129     1.0000 0.42720  0.90100  0.26090  Biso   1.000  C
  H128     1.0000 0.42500  0.88390  0.28800  Biso   1.000  H
  C130     1.0000 0.44250  0.98170  0.13730  Biso   1.000  C
  H129     1.0000 0.50870  0.97710  0.13860  Biso   1.000  H
  H130     1.0000 0.43240  0.01880  0.14060  Biso   1.000  H
  C131     1.0000 0.32670  0.98940  0.04590  Biso   1.000  C
  H131     1.0000 0.34110  0.02410  0.04210  Biso   1.000  H
  C132     1.0000 0.26750  0.91200  0.03340  Biso   1.000  C
  H132     1.0000 0.23100  0.88250  0.01730  Biso   1.000  H
  C133     1.0000 0.09540  0.36040  0.21740  Biso   1.000  C
  H133     1.0000 0.06090  0.34780  0.18500  Biso   1.000  H
  C134     1.0000 0.14640  0.37380  0.29360  Biso   1.000  C
  H134     1.0000 0.15420  0.37120  0.32640  Biso   1.000  H
  C135     1.0000 0.20900  0.42250  0.20000  Biso   1.000  C
  H135     1.0000 0.28040  0.42770  0.21980  Biso   1.000  H
  H136     1.0000 0.20030  0.39990  0.17210  Biso   1.000  H
  C136     1.0000 0.15960  0.47560  0.17970  Biso   1.000  C
  C137     1.0000 0.06850  0.47650  0.13950  Biso   1.000  C
  H137     1.0000 0.03750  0.44530  0.12470  Biso   1.000  H
  C138     1.0000 0.02230  0.52340  0.12090  Biso   1.000  C
  H138     1.0000 0.95950  0.52360  0.09360  Biso   1.000  H
  C139     1.0000 0.06670  0.57020  0.14160  Biso   1.000  C
  H139     1.0000 0.03390  0.60160  0.12880  Biso   1.000  H
  C140     1.0000 0.16060  0.57020  0.18170  Biso   1.000  C
  C141     1.0000 0.20610  0.52270  0.20200  Biso   1.000  C
  H140     1.0000 0.26720  0.52220  0.23030  Biso   1.000  H
  C142     1.0000 0.21330  0.62020  0.20420  Biso   1.000  C
  H141     1.0000 0.22370  0.64020  0.17900  Biso   1.000  H
  H142     1.0000 0.27850  0.61230  0.23100  Biso   1.000  H
  C143     1.0000 0.12420  0.70100  0.21420  Biso   1.000  C
  H143     1.0000 0.13190  0.72230  0.19060  Biso   1.000  H
  C144     1.0000 0.08620  0.67050  0.26950  Biso   1.000  C
  H144     1.0000 0.05950  0.66800  0.29260  Biso   1.000  H
  N55      1.0000 0.92030  0.73900  0.26910  Biso   1.000  N
  N56      1.0000 0.81230  0.67850  0.26560  Biso   1.000  N
  N57      1.0000 0.87740  0.68270  0.31370  Biso   1.000  N
  N58      1.0000 0.11040  0.50240  0.36800  Biso   1.000  N
  N59      1.0000 0.03040  0.50200  0.28650  Biso   1.000  N
  N60      1.0000 0.99150  0.46130  0.30270  Biso   1.000  N
  N61      1.0000 0.09150  0.82760  0.22310  Biso   1.000  N
  N62      1.0000 0.19080  0.89020  0.22430  Biso   1.000  N
  N63      1.0000 0.14930  0.87260  0.17640  Biso   1.000  N
  N64      1.0000 0.26350  0.95850  0.00960  Biso   1.000  N
  N65      1.0000 0.36540  0.96260  0.08830  Biso   1.000  N
  N66      1.0000 0.32760  0.91350  0.08080  Biso   1.000  N
  N67      1.0000 0.07990  0.34510  0.25620  Biso   1.000  N
  N68      1.0000 0.16650  0.39610  0.23140  Biso   1.000  N
  N69      1.0000 0.19940  0.40600  0.28020  Biso   1.000  N
  N70      1.0000 0.07940  0.71550  0.24320  Biso   1.000  N
  N71      1.0000 0.13220  0.63140  0.26030  Biso   1.000  N
  N72      1.0000 0.15540  0.65220  0.22410  Biso   1.000  N
