data_image0
_cell_length_a       12.0272
_cell_length_b       14.0702
_cell_length_c       15.8258
_cell_angle_alpha    90
_cell_angle_beta     91.148
_cell_angle_gamma    90

_symmetry_space_group_name_H-M    "P 1"
_symmetry_int_tables_number       1

loop_
  _symmetry_equiv_pos_as_xyz
  'x, y, z'

loop_
  _atom_site_label
  _atom_site_occupancy
  _atom_site_fract_x
  _atom_site_fract_y
  _atom_site_fract_z
  _atom_site_thermal_displace_type
  _atom_site_B_iso_or_equiv
  _atom_site_type_symbol
  Ag1      1.0000 0.83221  0.04164  0.83640  Biso   1.000  Ag
  C1       1.0000 0.57190  0.99780  0.86800  Biso   1.000  C
  C2       1.0000 0.53070  0.08730  0.84400  Biso   1.000  C
  H1       1.0000 0.57490  0.13320  0.81900  Biso   1.000  H
  C3       1.0000 0.41790  0.10260  0.86050  Biso   1.000  C
  H2       1.0000 0.38670  0.16150  0.84780  Biso   1.000  H
  C4       1.0000 0.35090  0.03210  0.89560  Biso   1.000  C
  H3       1.0000 0.27620  0.04520  0.90440  Biso   1.000  H
  C5       1.0000 0.39140  0.94560  0.91710  Biso   1.000  C
  H4       1.0000 0.34670  0.89930  0.94100  Biso   1.000  H
  C6       1.0000 0.50510  0.92890  0.90140  Biso   1.000  C
  C7       1.0000 0.54900  0.75770  0.94430  Biso   1.000  C
  H5       1.0000 0.61610  0.72830  0.96720  Biso   1.000  H
  H6       1.0000 0.49440  0.75960  0.98860  Biso   1.000  H
  C8       1.0000 0.50410  0.69910  0.87050  Biso   1.000  C
  C9       1.0000 0.39150  0.68120  0.85970  Biso   1.000  C
  H7       1.0000 0.34080  0.70150  0.89950  Biso   1.000  H
  C10      1.0000 0.35630  0.63220  0.78820  Biso   1.000  C
  H8       1.0000 0.28100  0.62130  0.77790  Biso   1.000  H
  C11      1.0000 0.43290  0.60010  0.73310  Biso   1.000  C
  H9       1.0000 0.40800  0.56710  0.68550  Biso   1.000  H
  C12      1.0000 0.57570  0.66330  0.81180  Biso   1.000  C
  H10      1.0000 0.65140  0.67420  0.81970  Biso   1.000  H
  N1       1.0000 0.57360  0.85420  0.91660  Biso   1.000  N
  N2       1.0000 0.67760  0.87520  0.89160  Biso   1.000  N
  N3       1.0000 0.67750  0.96240  0.86290  Biso   1.000  N
  N4       1.0000 0.54180  0.61360  0.74380  Biso   1.000  N
  O1       1.0000 0.09030  0.05300  0.00000  Biso   1.000  O
  O2       1.0000 0.97300  0.97970  0.93120  Biso   1.000  O
  O3       1.0000 0.97400  0.95600  0.05100  Biso   1.000  O
  Ag2      1.0000 0.66779  0.54164  0.66360  Biso   1.000  Ag
  C13      1.0000 0.92810  0.49780  0.63200  Biso   1.000  C
  C14      1.0000 0.96930  0.58730  0.65600  Biso   1.000  C
  H11      1.0000 0.92510  0.63320  0.68100  Biso   1.000  H
  C15      1.0000 0.08210  0.60260  0.63950  Biso   1.000  C
  H12      1.0000 0.11330  0.66150  0.65220  Biso   1.000  H
  C16      1.0000 0.14910  0.53210  0.60440  Biso   1.000  C
  H13      1.0000 0.22380  0.54520  0.59560  Biso   1.000  H
  C17      1.0000 0.10860  0.44560  0.58290  Biso   1.000  C
  H14      1.0000 0.15330  0.39930  0.55900  Biso   1.000  H
  C18      1.0000 0.99490  0.42890  0.59860  Biso   1.000  C
  C19      1.0000 0.95100  0.25770  0.55570  Biso   1.000  C
  H15      1.0000 0.88390  0.22830  0.53280  Biso   1.000  H
  H16      1.0000 0.00560  0.25960  0.51140  Biso   1.000  H
  C20      1.0000 0.99590  0.19910  0.62950  Biso   1.000  C
  C21      1.0000 0.10850  0.18120  0.64030  Biso   1.000  C
  H17      1.0000 0.15920  0.20150  0.60050  Biso   1.000  H
  C22      1.0000 0.14370  0.13220  0.71180  Biso   1.000  C
  H18      1.0000 0.21900  0.12130  0.72210  Biso   1.000  H
  C23      1.0000 0.06710  0.10010  0.76690  Biso   1.000  C
  H19      1.0000 0.09200  0.06710  0.81450  Biso   1.000  H
  C24      1.0000 0.92430  0.16330  0.68820  Biso   1.000  C
  H20      1.0000 0.84860  0.17420  0.68030  Biso   1.000  H
  N5       1.0000 0.92640  0.35420  0.58340  Biso   1.000  N
  N6       1.0000 0.82240  0.37520  0.60840  Biso   1.000  N
  N7       1.0000 0.82250  0.46240  0.63710  Biso   1.000  N
  N8       1.0000 0.95820  0.11360  0.75620  Biso   1.000  N
  O4       1.0000 0.40970  0.55300  0.50000  Biso   1.000  O
  O5       1.0000 0.52700  0.47970  0.56880  Biso   1.000  O
  O6       1.0000 0.52600  0.45600  0.44900  Biso   1.000  O
  Ag3      1.0000 0.16779  0.95836  0.16360  Biso   1.000  Ag
  C25      1.0000 0.42810  0.00220  0.13200  Biso   1.000  C
  C26      1.0000 0.46930  0.91270  0.15600  Biso   1.000  C
  H21      1.0000 0.42510  0.86680  0.18100  Biso   1.000  H
  C27      1.0000 0.58210  0.89740  0.13950  Biso   1.000  C
  H22      1.0000 0.61330  0.83850  0.15220  Biso   1.000  H
  C28      1.0000 0.64910  0.96790  0.10440  Biso   1.000  C
  H23      1.0000 0.72380  0.95480  0.09560  Biso   1.000  H
  C29      1.0000 0.60860  0.05440  0.08290  Biso   1.000  C
  H24      1.0000 0.65330  0.10070  0.05900  Biso   1.000  H
  C30      1.0000 0.49490  0.07110  0.09860  Biso   1.000  C
  C31      1.0000 0.45100  0.24230  0.05570  Biso   1.000  C
  H25      1.0000 0.38390  0.27170  0.03280  Biso   1.000  H
  H26      1.0000 0.50560  0.24040  0.01140  Biso   1.000  H
  C32      1.0000 0.49590  0.30090  0.12950  Biso   1.000  C
  C33      1.0000 0.60850  0.31880  0.14030  Biso   1.000  C
  H27      1.0000 0.65920  0.29850  0.10050  Biso   1.000  H
  C34      1.0000 0.64370  0.36780  0.21180  Biso   1.000  C
  H28      1.0000 0.71900  0.37870  0.22210  Biso   1.000  H
  C35      1.0000 0.56710  0.39990  0.26690  Biso   1.000  C
  H29      1.0000 0.59200  0.43290  0.31450  Biso   1.000  H
  C36      1.0000 0.42430  0.33670  0.18820  Biso   1.000  C
  H30      1.0000 0.34860  0.32580  0.18030  Biso   1.000  H
  N9       1.0000 0.42640  0.14580  0.08340  Biso   1.000  N
  N10      1.0000 0.32240  0.12480  0.10840  Biso   1.000  N
  N11      1.0000 0.32250  0.03760  0.13710  Biso   1.000  N
  N12      1.0000 0.45820  0.38640  0.25620  Biso   1.000  N
  O7       1.0000 0.90970  0.94700  0.00000  Biso   1.000  O
  O8       1.0000 0.02700  0.02030  0.06880  Biso   1.000  O
  O9       1.0000 0.02600  0.04400  0.94900  Biso   1.000  O
  Ag4      1.0000 0.33221  0.45836  0.33640  Biso   1.000  Ag
  C37      1.0000 0.07190  0.50220  0.36800  Biso   1.000  C
  C38      1.0000 0.03070  0.41270  0.34400  Biso   1.000  C
  H31      1.0000 0.07490  0.36680  0.31900  Biso   1.000  H
  C39      1.0000 0.91790  0.39740  0.36050  Biso   1.000  C
  H32      1.0000 0.88670  0.33850  0.34780  Biso   1.000  H
  C40      1.0000 0.85090  0.46790  0.39560  Biso   1.000  C
  H33      1.0000 0.77620  0.45480  0.40440  Biso   1.000  H
  C41      1.0000 0.89140  0.55440  0.41710  Biso   1.000  C
  H34      1.0000 0.84670  0.60070  0.44100  Biso   1.000  H
  C42      1.0000 0.00510  0.57110  0.40140  Biso   1.000  C
  C43      1.0000 0.04900  0.74230  0.44430  Biso   1.000  C
  H35      1.0000 0.11610  0.77170  0.46720  Biso   1.000  H
  H36      1.0000 0.99440  0.74040  0.48860  Biso   1.000  H
  C44      1.0000 0.00410  0.80090  0.37050  Biso   1.000  C
  C45      1.0000 0.89150  0.81880  0.35970  Biso   1.000  C
  H37      1.0000 0.84080  0.79850  0.39950  Biso   1.000  H
  C46      1.0000 0.85630  0.86780  0.28820  Biso   1.000  C
  H38      1.0000 0.78100  0.87870  0.27790  Biso   1.000  H
  C47      1.0000 0.93290  0.89990  0.23310  Biso   1.000  C
  H39      1.0000 0.90800  0.93290  0.18550  Biso   1.000  H
  C48      1.0000 0.07570  0.83670  0.31180  Biso   1.000  C
  H40      1.0000 0.15140  0.82580  0.31970  Biso   1.000  H
  N13      1.0000 0.07360  0.64580  0.41660  Biso   1.000  N
  N14      1.0000 0.17760  0.62480  0.39160  Biso   1.000  N
  N15      1.0000 0.17750  0.53760  0.36290  Biso   1.000  N
  N16      1.0000 0.04180  0.88640  0.24380  Biso   1.000  N
  O10      1.0000 0.59030  0.44700  0.50000  Biso   1.000  O
  O11      1.0000 0.47300  0.52030  0.43120  Biso   1.000  O
  O12      1.0000 0.47400  0.54400  0.55100  Biso   1.000  O
  N17      1.0000 0.00000  0.00000  0.00000  Biso   1.000  N
  N18      1.0000 0.50000  0.50000  0.50000  Biso   1.000  N
