data_image0
_cell_length_a       15.4234
_cell_length_b       15.7761
_cell_length_c       19.1034
_cell_angle_alpha    90
_cell_angle_beta     108.591
_cell_angle_gamma    90

_symmetry_space_group_name_H-M    "P 1"
_symmetry_int_tables_number       1

loop_
  _symmetry_equiv_pos_as_xyz
  'x, y, z'

loop_
  _atom_site_label
  _atom_site_occupancy
  _atom_site_fract_x
  _atom_site_fract_y
  _atom_site_fract_z
  _atom_site_thermal_displace_type
  _atom_site_B_iso_or_equiv
  _atom_site_type_symbol
  Cu1      1.0000 0.09598  0.29100  0.57719  Biso   1.000  Cu
  O1       1.0000 0.18438  0.21623  0.56348  Biso   1.000  O
  H1       1.0000 0.18470  0.16850  0.58010  Biso   1.000  H
  N1       1.0000 0.25228  0.37269  0.54909  Biso   1.000  N
  N2       1.0000 0.18604  0.38876  0.57896  Biso   1.000  N
  N3       1.0000 0.51032  0.69717  0.58240  Biso   1.000  N
  N4       1.0000 0.48003  0.64559  0.52465  Biso   1.000  N
  C1       1.0000 0.31335  0.43136  0.55012  Biso   1.000  C
  H2       1.0000 0.36010  0.41860  0.52850  Biso   1.000  H
  C2       1.0000 0.31321  0.51230  0.58166  Biso   1.000  C
  C3       1.0000 0.24530  0.52810  0.61170  Biso   1.000  C
  H3       1.0000 0.24100  0.58200  0.63370  Biso   1.000  H
  C4       1.0000 0.18250  0.46367  0.60935  Biso   1.000  C
  H4       1.0000 0.13490  0.47400  0.63060  Biso   1.000  H
  C5       1.0000 0.41710  0.58563  0.52363  Biso   1.000  C
  H5       1.0000 0.39530  0.54910  0.48150  Biso   1.000  H
  C6       1.0000 0.38343  0.57597  0.58236  Biso   1.000  C
  C7       1.0000 0.41800  0.63015  0.64197  Biso   1.000  C
  H6       1.0000 0.39730  0.62550  0.68420  Biso   1.000  H
  C8       1.0000 0.48100  0.68970  0.64072  Biso   1.000  C
  H7       1.0000 0.50470  0.72680  0.68230  Biso   1.000  H
  Cu2      1.0000 0.59598  0.79100  0.57719  Biso   1.000  Cu
  O2       1.0000 0.68438  0.71623  0.56348  Biso   1.000  O
  H8       1.0000 0.68470  0.66850  0.58010  Biso   1.000  H
  N5       1.0000 0.75228  0.87269  0.54909  Biso   1.000  N
  N6       1.0000 0.68604  0.88876  0.57896  Biso   1.000  N
  N7       1.0000 0.01032  0.19717  0.58240  Biso   1.000  N
  N8       1.0000 0.98003  0.14559  0.52465  Biso   1.000  N
  C9       1.0000 0.81335  0.93136  0.55012  Biso   1.000  C
  H9       1.0000 0.86010  0.91860  0.52850  Biso   1.000  H
  C10      1.0000 0.81321  0.01230  0.58166  Biso   1.000  C
  C11      1.0000 0.74530  0.02810  0.61170  Biso   1.000  C
  H10      1.0000 0.74100  0.08200  0.63370  Biso   1.000  H
  C12      1.0000 0.68250  0.96367  0.60935  Biso   1.000  C
  H11      1.0000 0.63490  0.97400  0.63060  Biso   1.000  H
  C13      1.0000 0.91710  0.08563  0.52363  Biso   1.000  C
  H12      1.0000 0.89530  0.04910  0.48150  Biso   1.000  H
  C14      1.0000 0.88343  0.07597  0.58236  Biso   1.000  C
  C15      1.0000 0.91800  0.13015  0.64197  Biso   1.000  C
  H13      1.0000 0.89730  0.12550  0.68420  Biso   1.000  H
  C16      1.0000 0.98100  0.18970  0.64072  Biso   1.000  C
  H14      1.0000 0.00470  0.22680  0.68230  Biso   1.000  H
  Cu3      1.0000 0.90402  0.70900  0.42281  Biso   1.000  Cu
  O3       1.0000 0.81562  0.78377  0.43652  Biso   1.000  O
  H15      1.0000 0.81530  0.83150  0.41990  Biso   1.000  H
  N9       1.0000 0.74772  0.62731  0.45091  Biso   1.000  N
  N10      1.0000 0.81396  0.61124  0.42104  Biso   1.000  N
  N11      1.0000 0.48968  0.30283  0.41760  Biso   1.000  N
  N12      1.0000 0.51997  0.35441  0.47535  Biso   1.000  N
  C17      1.0000 0.68665  0.56864  0.44988  Biso   1.000  C
  H16      1.0000 0.63990  0.58140  0.47150  Biso   1.000  H
  C18      1.0000 0.68679  0.48770  0.41834  Biso   1.000  C
  C19      1.0000 0.75470  0.47190  0.38830  Biso   1.000  C
  H17      1.0000 0.75900  0.41800  0.36630  Biso   1.000  H
  C20      1.0000 0.81750  0.53633  0.39065  Biso   1.000  C
  H18      1.0000 0.86510  0.52600  0.36940  Biso   1.000  H
  C21      1.0000 0.58290  0.41437  0.47637  Biso   1.000  C
  H19      1.0000 0.60470  0.45090  0.51850  Biso   1.000  H
  C22      1.0000 0.61657  0.42403  0.41764  Biso   1.000  C
  C23      1.0000 0.58200  0.36985  0.35803  Biso   1.000  C
  H20      1.0000 0.60270  0.37450  0.31580  Biso   1.000  H
  C24      1.0000 0.51900  0.31030  0.35928  Biso   1.000  C
  H21      1.0000 0.49530  0.27320  0.31770  Biso   1.000  H
  Cu4      1.0000 0.40402  0.20900  0.42281  Biso   1.000  Cu
  O4       1.0000 0.31562  0.28377  0.43652  Biso   1.000  O
  H22      1.0000 0.31530  0.33150  0.41990  Biso   1.000  H
  N13      1.0000 0.24772  0.12731  0.45091  Biso   1.000  N
  N14      1.0000 0.31396  0.11124  0.42104  Biso   1.000  N
  N15      1.0000 0.98968  0.80283  0.41760  Biso   1.000  N
  N16      1.0000 0.01997  0.85441  0.47535  Biso   1.000  N
  C25      1.0000 0.18665  0.06864  0.44988  Biso   1.000  C
  H23      1.0000 0.13990  0.08140  0.47150  Biso   1.000  H
  C26      1.0000 0.18679  0.98770  0.41834  Biso   1.000  C
  C27      1.0000 0.25470  0.97190  0.38830  Biso   1.000  C
  H24      1.0000 0.25900  0.91800  0.36630  Biso   1.000  H
  C28      1.0000 0.31750  0.03633  0.39065  Biso   1.000  C
  H25      1.0000 0.36510  0.02600  0.36940  Biso   1.000  H
  C29      1.0000 0.08290  0.91437  0.47637  Biso   1.000  C
  H26      1.0000 0.10470  0.95090  0.51850  Biso   1.000  H
  C30      1.0000 0.11657  0.92403  0.41764  Biso   1.000  C
  C31      1.0000 0.08200  0.86985  0.35803  Biso   1.000  C
  H27      1.0000 0.10270  0.87450  0.31580  Biso   1.000  H
  C32      1.0000 0.01900  0.81030  0.35928  Biso   1.000  C
  H28      1.0000 0.99530  0.77320  0.31770  Biso   1.000  H
  Cu5      1.0000 0.25000  0.25000  0.50000  Biso   1.000  Cu
  Cu6      1.0000 0.75000  0.75000  0.50000  Biso   1.000  Cu
  Cu7      1.0000 0.90402  0.29100  0.92281  Biso   1.000  Cu
  O5       1.0000 0.81562  0.21623  0.93652  Biso   1.000  O
  H29      1.0000 0.81530  0.16850  0.91990  Biso   1.000  H
  N17      1.0000 0.74772  0.37269  0.95091  Biso   1.000  N
  N18      1.0000 0.81396  0.38876  0.92104  Biso   1.000  N
  N19      1.0000 0.48968  0.69717  0.91760  Biso   1.000  N
  N20      1.0000 0.51997  0.64559  0.97535  Biso   1.000  N
  C33      1.0000 0.68665  0.43136  0.94988  Biso   1.000  C
  H30      1.0000 0.63990  0.41860  0.97150  Biso   1.000  H
  C34      1.0000 0.68679  0.51230  0.91834  Biso   1.000  C
  C35      1.0000 0.75470  0.52810  0.88830  Biso   1.000  C
  H31      1.0000 0.75900  0.58200  0.86630  Biso   1.000  H
  C36      1.0000 0.81750  0.46367  0.89065  Biso   1.000  C
  H32      1.0000 0.86510  0.47400  0.86940  Biso   1.000  H
  C37      1.0000 0.58290  0.58563  0.97637  Biso   1.000  C
  H33      1.0000 0.60470  0.54910  0.01850  Biso   1.000  H
  C38      1.0000 0.61657  0.57597  0.91764  Biso   1.000  C
  C39      1.0000 0.58200  0.63015  0.85803  Biso   1.000  C
  H34      1.0000 0.60270  0.62550  0.81580  Biso   1.000  H
  C40      1.0000 0.51900  0.68970  0.85928  Biso   1.000  C
  H35      1.0000 0.49530  0.72680  0.81770  Biso   1.000  H
  Cu8      1.0000 0.40402  0.79100  0.92281  Biso   1.000  Cu
  O6       1.0000 0.31562  0.71623  0.93652  Biso   1.000  O
  H36      1.0000 0.31530  0.66850  0.91990  Biso   1.000  H
  N21      1.0000 0.24772  0.87269  0.95091  Biso   1.000  N
  N22      1.0000 0.31396  0.88876  0.92104  Biso   1.000  N
  N23      1.0000 0.98968  0.19717  0.91760  Biso   1.000  N
  N24      1.0000 0.01997  0.14559  0.97535  Biso   1.000  N
  C41      1.0000 0.18665  0.93136  0.94988  Biso   1.000  C
  H37      1.0000 0.13990  0.91860  0.97150  Biso   1.000  H
  C42      1.0000 0.18679  0.01230  0.91834  Biso   1.000  C
  C43      1.0000 0.25470  0.02810  0.88830  Biso   1.000  C
  H38      1.0000 0.25900  0.08200  0.86630  Biso   1.000  H
  C44      1.0000 0.31750  0.96367  0.89065  Biso   1.000  C
  H39      1.0000 0.36510  0.97400  0.86940  Biso   1.000  H
  C45      1.0000 0.08290  0.08563  0.97637  Biso   1.000  C
  H40      1.0000 0.10470  0.04910  0.01850  Biso   1.000  H
  C46      1.0000 0.11657  0.07597  0.91764  Biso   1.000  C
  C47      1.0000 0.08200  0.13015  0.85803  Biso   1.000  C
  H41      1.0000 0.10270  0.12550  0.81580  Biso   1.000  H
  C48      1.0000 0.01900  0.18970  0.85928  Biso   1.000  C
  H42      1.0000 0.99530  0.22680  0.81770  Biso   1.000  H
  Cu9      1.0000 0.09598  0.70900  0.07719  Biso   1.000  Cu
  O7       1.0000 0.18438  0.78377  0.06348  Biso   1.000  O
  H43      1.0000 0.18470  0.83150  0.08010  Biso   1.000  H
  N25      1.0000 0.25228  0.62731  0.04909  Biso   1.000  N
  N26      1.0000 0.18604  0.61124  0.07896  Biso   1.000  N
  N27      1.0000 0.51032  0.30283  0.08240  Biso   1.000  N
  N28      1.0000 0.48003  0.35441  0.02465  Biso   1.000  N
  C49      1.0000 0.31335  0.56864  0.05012  Biso   1.000  C
  H44      1.0000 0.36010  0.58140  0.02850  Biso   1.000  H
  C50      1.0000 0.31321  0.48770  0.08166  Biso   1.000  C
  C51      1.0000 0.24530  0.47190  0.11170  Biso   1.000  C
  H45      1.0000 0.24100  0.41800  0.13370  Biso   1.000  H
  C52      1.0000 0.18250  0.53633  0.10935  Biso   1.000  C
  H46      1.0000 0.13490  0.52600  0.13060  Biso   1.000  H
  C53      1.0000 0.41710  0.41437  0.02363  Biso   1.000  C
  H47      1.0000 0.39530  0.45090  0.98150  Biso   1.000  H
  C54      1.0000 0.38343  0.42403  0.08236  Biso   1.000  C
  C55      1.0000 0.41800  0.36985  0.14197  Biso   1.000  C
  H48      1.0000 0.39730  0.37450  0.18420  Biso   1.000  H
  C56      1.0000 0.48100  0.31030  0.14072  Biso   1.000  C
  H49      1.0000 0.50470  0.27320  0.18230  Biso   1.000  H
  Cu10     1.0000 0.59598  0.20900  0.07719  Biso   1.000  Cu
  O8       1.0000 0.68438  0.28377  0.06348  Biso   1.000  O
  H50      1.0000 0.68470  0.33150  0.08010  Biso   1.000  H
  N29      1.0000 0.75228  0.12731  0.04909  Biso   1.000  N
  N30      1.0000 0.68604  0.11124  0.07896  Biso   1.000  N
  N31      1.0000 0.01032  0.80283  0.08240  Biso   1.000  N
  N32      1.0000 0.98003  0.85441  0.02465  Biso   1.000  N
  C57      1.0000 0.81335  0.06864  0.05012  Biso   1.000  C
  H51      1.0000 0.86010  0.08140  0.02850  Biso   1.000  H
  C58      1.0000 0.81321  0.98770  0.08166  Biso   1.000  C
  C59      1.0000 0.74530  0.97190  0.11170  Biso   1.000  C
  H52      1.0000 0.74100  0.91800  0.13370  Biso   1.000  H
  C60      1.0000 0.68250  0.03633  0.10935  Biso   1.000  C
  H53      1.0000 0.63490  0.02600  0.13060  Biso   1.000  H
  C61      1.0000 0.91710  0.91437  0.02363  Biso   1.000  C
  H54      1.0000 0.89530  0.95090  0.98150  Biso   1.000  H
  C62      1.0000 0.88343  0.92403  0.08236  Biso   1.000  C
  C63      1.0000 0.91800  0.86985  0.14197  Biso   1.000  C
  H55      1.0000 0.89730  0.87450  0.18420  Biso   1.000  H
  C64      1.0000 0.98100  0.81030  0.14072  Biso   1.000  C
  H56      1.0000 0.00470  0.77320  0.18230  Biso   1.000  H
  Cu11     1.0000 0.75000  0.25000  0.00000  Biso   1.000  Cu
  Cu12     1.0000 0.25000  0.75000  0.00000  Biso   1.000  Cu
