data_image0
_cell_length_a       13.1338
_cell_length_b       13.1338
_cell_length_c       44.093
_cell_angle_alpha    90
_cell_angle_beta     90
_cell_angle_gamma    90

_symmetry_space_group_name_H-M    "P 1"
_symmetry_int_tables_number       1

loop_
  _symmetry_equiv_pos_as_xyz
  'x, y, z'

loop_
  _atom_site_label
  _atom_site_occupancy
  _atom_site_fract_x
  _atom_site_fract_y
  _atom_site_fract_z
  _atom_site_thermal_displace_type
  _atom_site_B_iso_or_equiv
  _atom_site_type_symbol
  Ag1      1.0000 0.11829  0.08075  0.18006  Biso   1.000  Ag
  N1       1.0000 0.33280  0.36250  0.25236  Biso   1.000  N
  N2       1.0000 0.36820  0.45180  0.29232  Biso   1.000  N
  N3       1.0000 0.43930  0.37960  0.28934  Biso   1.000  N
  N4       1.0000 0.28310  0.32510  0.22738  Biso   1.000  N
  N5       1.0000 0.19080  0.22560  0.19934  Biso   1.000  N
  N6       1.0000 0.22870  0.30140  0.18118  Biso   1.000  N
  C1       1.0000 0.30290  0.44640  0.26890  Biso   1.000  C
  H1       1.0000 0.24900  0.49010  0.26470  Biso   1.000  H
  C2       1.0000 0.41610  0.32580  0.26580  Biso   1.000  C
  H2       1.0000 0.45250  0.26930  0.25910  Biso   1.000  H
  C3       1.0000 0.28750  0.35870  0.19816  Biso   1.000  C
  H3       1.0000 0.32610  0.41340  0.19130  Biso   1.000  H
  C4       1.0000 0.22280  0.24080  0.22623  Biso   1.000  C
  H4       1.0000 0.20710  0.19990  0.24280  Biso   1.000  H
  Ag2      1.0000 0.88171  0.91925  0.18006  Biso   1.000  Ag
  N7       1.0000 0.66720  0.63750  0.25236  Biso   1.000  N
  N8       1.0000 0.63180  0.54820  0.29232  Biso   1.000  N
  N9       1.0000 0.56070  0.62040  0.28934  Biso   1.000  N
  N10      1.0000 0.71690  0.67490  0.22738  Biso   1.000  N
  N11      1.0000 0.80920  0.77440  0.19934  Biso   1.000  N
  N12      1.0000 0.77130  0.69860  0.18118  Biso   1.000  N
  C5       1.0000 0.69710  0.55360  0.26890  Biso   1.000  C
  H5       1.0000 0.75100  0.50990  0.26470  Biso   1.000  H
  C6       1.0000 0.58390  0.67420  0.26580  Biso   1.000  C
  H6       1.0000 0.54750  0.73070  0.25910  Biso   1.000  H
  C7       1.0000 0.71250  0.64130  0.19816  Biso   1.000  C
  H7       1.0000 0.67390  0.58660  0.19130  Biso   1.000  H
  C8       1.0000 0.77720  0.75920  0.22623  Biso   1.000  C
  H8       1.0000 0.79290  0.80010  0.24280  Biso   1.000  H
  Ag3      1.0000 0.58075  0.38171  0.31994  Biso   1.000  Ag
  N13      1.0000 0.86250  0.16720  0.24764  Biso   1.000  N
  N14      1.0000 0.95180  0.13180  0.20768  Biso   1.000  N
  N15      1.0000 0.87960  0.06070  0.21066  Biso   1.000  N
  N16      1.0000 0.82510  0.21690  0.27262  Biso   1.000  N
  N17      1.0000 0.72560  0.30920  0.30066  Biso   1.000  N
  N18      1.0000 0.80140  0.27130  0.31882  Biso   1.000  N
  C9       1.0000 0.94640  0.19710  0.23110  Biso   1.000  C
  H9       1.0000 0.99010  0.25100  0.23530  Biso   1.000  H
  C10      1.0000 0.82580  0.08390  0.23420  Biso   1.000  C
  H10      1.0000 0.76930  0.04750  0.24090  Biso   1.000  H
  C11      1.0000 0.85870  0.21250  0.30184  Biso   1.000  C
  H11      1.0000 0.91340  0.17390  0.30870  Biso   1.000  H
  C12      1.0000 0.74080  0.27720  0.27377  Biso   1.000  C
  H12      1.0000 0.69990  0.29290  0.25720  Biso   1.000  H
  Ag4      1.0000 0.41925  0.61829  0.31994  Biso   1.000  Ag
  N19      1.0000 0.13750  0.83280  0.24764  Biso   1.000  N
  N20      1.0000 0.04820  0.86820  0.20768  Biso   1.000  N
  N21      1.0000 0.12040  0.93930  0.21066  Biso   1.000  N
  N22      1.0000 0.17490  0.78310  0.27262  Biso   1.000  N
  N23      1.0000 0.27440  0.69080  0.30066  Biso   1.000  N
  N24      1.0000 0.19860  0.72870  0.31882  Biso   1.000  N
  C13      1.0000 0.05360  0.80290  0.23110  Biso   1.000  C
  H13      1.0000 0.00990  0.74900  0.23530  Biso   1.000  H
  C14      1.0000 0.17420  0.91610  0.23420  Biso   1.000  C
  H14      1.0000 0.23070  0.95250  0.24090  Biso   1.000  H
  C15      1.0000 0.14130  0.78750  0.30184  Biso   1.000  C
  H15      1.0000 0.08660  0.82610  0.30870  Biso   1.000  H
  C16      1.0000 0.25920  0.72280  0.27377  Biso   1.000  C
  H16      1.0000 0.30010  0.70710  0.25720  Biso   1.000  H
  Ag5      1.0000 0.61829  0.58075  0.68006  Biso   1.000  Ag
  N25      1.0000 0.83280  0.86250  0.75236  Biso   1.000  N
  N26      1.0000 0.86820  0.95180  0.79232  Biso   1.000  N
  N27      1.0000 0.93930  0.87960  0.78934  Biso   1.000  N
  N28      1.0000 0.78310  0.82510  0.72738  Biso   1.000  N
  N29      1.0000 0.69080  0.72560  0.69934  Biso   1.000  N
  N30      1.0000 0.72870  0.80140  0.68118  Biso   1.000  N
  C17      1.0000 0.80290  0.94640  0.76890  Biso   1.000  C
  H17      1.0000 0.74900  0.99010  0.76470  Biso   1.000  H
  C18      1.0000 0.91610  0.82580  0.76580  Biso   1.000  C
  H18      1.0000 0.95250  0.76930  0.75910  Biso   1.000  H
  C19      1.0000 0.78750  0.85870  0.69816  Biso   1.000  C
  H19      1.0000 0.82610  0.91340  0.69130  Biso   1.000  H
  C20      1.0000 0.72280  0.74080  0.72623  Biso   1.000  C
  H20      1.0000 0.70710  0.69990  0.74280  Biso   1.000  H
  Ag6      1.0000 0.38171  0.41925  0.68006  Biso   1.000  Ag
  N31      1.0000 0.16720  0.13750  0.75236  Biso   1.000  N
  N32      1.0000 0.13180  0.04820  0.79232  Biso   1.000  N
  N33      1.0000 0.06070  0.12040  0.78934  Biso   1.000  N
  N34      1.0000 0.21690  0.17490  0.72738  Biso   1.000  N
  N35      1.0000 0.30920  0.27440  0.69934  Biso   1.000  N
  N36      1.0000 0.27130  0.19860  0.68118  Biso   1.000  N
  C21      1.0000 0.19710  0.05360  0.76890  Biso   1.000  C
  H21      1.0000 0.25100  0.00990  0.76470  Biso   1.000  H
  C22      1.0000 0.08390  0.17420  0.76580  Biso   1.000  C
  H22      1.0000 0.04750  0.23070  0.75910  Biso   1.000  H
  C23      1.0000 0.21250  0.14130  0.69816  Biso   1.000  C
  H23      1.0000 0.17390  0.08660  0.69130  Biso   1.000  H
  C24      1.0000 0.27720  0.25920  0.72623  Biso   1.000  C
  H24      1.0000 0.29290  0.30010  0.74280  Biso   1.000  H
  Ag7      1.0000 0.08075  0.88171  0.81994  Biso   1.000  Ag
  N37      1.0000 0.36250  0.66720  0.74764  Biso   1.000  N
  N38      1.0000 0.45180  0.63180  0.70768  Biso   1.000  N
  N39      1.0000 0.37960  0.56070  0.71066  Biso   1.000  N
  N40      1.0000 0.32510  0.71690  0.77262  Biso   1.000  N
  N41      1.0000 0.22560  0.80920  0.80066  Biso   1.000  N
  N42      1.0000 0.30140  0.77130  0.81882  Biso   1.000  N
  C25      1.0000 0.44640  0.69710  0.73110  Biso   1.000  C
  H25      1.0000 0.49010  0.75100  0.73530  Biso   1.000  H
  C26      1.0000 0.32580  0.58390  0.73420  Biso   1.000  C
  H26      1.0000 0.26930  0.54750  0.74090  Biso   1.000  H
  C27      1.0000 0.35870  0.71250  0.80184  Biso   1.000  C
  H27      1.0000 0.41340  0.67390  0.80870  Biso   1.000  H
  C28      1.0000 0.24080  0.77720  0.77377  Biso   1.000  C
  H28      1.0000 0.19990  0.79290  0.75720  Biso   1.000  H
  Ag8      1.0000 0.91925  0.11829  0.81994  Biso   1.000  Ag
  N43      1.0000 0.63750  0.33280  0.74764  Biso   1.000  N
  N44      1.0000 0.54820  0.36820  0.70768  Biso   1.000  N
  N45      1.0000 0.62040  0.43930  0.71066  Biso   1.000  N
  N46      1.0000 0.67490  0.28310  0.77262  Biso   1.000  N
  N47      1.0000 0.77440  0.19080  0.80066  Biso   1.000  N
  N48      1.0000 0.69860  0.22870  0.81882  Biso   1.000  N
  C29      1.0000 0.55360  0.30290  0.73110  Biso   1.000  C
  H29      1.0000 0.50990  0.24900  0.73530  Biso   1.000  H
  C30      1.0000 0.67420  0.41610  0.73420  Biso   1.000  C
  H30      1.0000 0.73070  0.45250  0.74090  Biso   1.000  H
  C31      1.0000 0.64130  0.28750  0.80184  Biso   1.000  C
  H31      1.0000 0.58660  0.32610  0.80870  Biso   1.000  H
  C32      1.0000 0.75920  0.22280  0.77377  Biso   1.000  C
  H32      1.0000 0.80010  0.20710  0.75720  Biso   1.000  H
  Ag9      1.0000 0.38171  0.08075  0.56994  Biso   1.000  Ag
  N49      1.0000 0.16720  0.36250  0.49764  Biso   1.000  N
  N50      1.0000 0.13180  0.45180  0.45768  Biso   1.000  N
  N51      1.0000 0.06070  0.37960  0.46066  Biso   1.000  N
  N52      1.0000 0.21690  0.32510  0.52262  Biso   1.000  N
  N53      1.0000 0.30920  0.22560  0.55066  Biso   1.000  N
  N54      1.0000 0.27130  0.30140  0.56882  Biso   1.000  N
  C33      1.0000 0.19710  0.44640  0.48110  Biso   1.000  C
  H33      1.0000 0.25100  0.49010  0.48530  Biso   1.000  H
  C34      1.0000 0.08390  0.32580  0.48420  Biso   1.000  C
  H34      1.0000 0.04750  0.26930  0.49090  Biso   1.000  H
  C35      1.0000 0.21250  0.35870  0.55184  Biso   1.000  C
  H35      1.0000 0.17390  0.41340  0.55870  Biso   1.000  H
  C36      1.0000 0.27720  0.24080  0.52377  Biso   1.000  C
  H36      1.0000 0.29290  0.19990  0.50720  Biso   1.000  H
  Ag10     1.0000 0.61829  0.91925  0.56994  Biso   1.000  Ag
  N55      1.0000 0.83280  0.63750  0.49764  Biso   1.000  N
  N56      1.0000 0.86820  0.54820  0.45768  Biso   1.000  N
  N57      1.0000 0.93930  0.62040  0.46066  Biso   1.000  N
  N58      1.0000 0.78310  0.67490  0.52262  Biso   1.000  N
  N59      1.0000 0.69080  0.77440  0.55066  Biso   1.000  N
  N60      1.0000 0.72870  0.69860  0.56882  Biso   1.000  N
  C37      1.0000 0.80290  0.55360  0.48110  Biso   1.000  C
  H37      1.0000 0.74900  0.50990  0.48530  Biso   1.000  H
  C38      1.0000 0.91610  0.67420  0.48420  Biso   1.000  C
  H38      1.0000 0.95250  0.73070  0.49090  Biso   1.000  H
  C39      1.0000 0.78750  0.64130  0.55184  Biso   1.000  C
  H39      1.0000 0.82610  0.58660  0.55870  Biso   1.000  H
  C40      1.0000 0.72280  0.75920  0.52377  Biso   1.000  C
  H40      1.0000 0.70710  0.80010  0.50720  Biso   1.000  H
  Ag11     1.0000 0.91925  0.38171  0.43006  Biso   1.000  Ag
  N61      1.0000 0.63750  0.16720  0.50236  Biso   1.000  N
  N62      1.0000 0.54820  0.13180  0.54232  Biso   1.000  N
  N63      1.0000 0.62040  0.06070  0.53934  Biso   1.000  N
  N64      1.0000 0.67490  0.21690  0.47738  Biso   1.000  N
  N65      1.0000 0.77440  0.30920  0.44934  Biso   1.000  N
  N66      1.0000 0.69860  0.27130  0.43118  Biso   1.000  N
  C41      1.0000 0.55360  0.19710  0.51890  Biso   1.000  C
  H41      1.0000 0.50990  0.25100  0.51470  Biso   1.000  H
  C42      1.0000 0.67420  0.08390  0.51580  Biso   1.000  C
  H42      1.0000 0.73070  0.04750  0.50910  Biso   1.000  H
  C43      1.0000 0.64130  0.21250  0.44816  Biso   1.000  C
  H43      1.0000 0.58660  0.17390  0.44130  Biso   1.000  H
  C44      1.0000 0.75920  0.27720  0.47623  Biso   1.000  C
  H44      1.0000 0.80010  0.29290  0.49280  Biso   1.000  H
  Ag12     1.0000 0.08075  0.61829  0.43006  Biso   1.000  Ag
  N67      1.0000 0.36250  0.83280  0.50236  Biso   1.000  N
  N68      1.0000 0.45180  0.86820  0.54232  Biso   1.000  N
  N69      1.0000 0.37960  0.93930  0.53934  Biso   1.000  N
  N70      1.0000 0.32510  0.78310  0.47738  Biso   1.000  N
  N71      1.0000 0.22560  0.69080  0.44934  Biso   1.000  N
  N72      1.0000 0.30140  0.72870  0.43118  Biso   1.000  N
  C45      1.0000 0.44640  0.80290  0.51890  Biso   1.000  C
  H45      1.0000 0.49010  0.74900  0.51470  Biso   1.000  H
  C46      1.0000 0.32580  0.91610  0.51580  Biso   1.000  C
  H46      1.0000 0.26930  0.95250  0.50910  Biso   1.000  H
  C47      1.0000 0.35870  0.78750  0.44816  Biso   1.000  C
  H47      1.0000 0.41340  0.82610  0.44130  Biso   1.000  H
  C48      1.0000 0.24080  0.72280  0.47623  Biso   1.000  C
  H48      1.0000 0.19990  0.70710  0.49280  Biso   1.000  H
  Ag13     1.0000 0.88171  0.58075  0.06994  Biso   1.000  Ag
  N73      1.0000 0.66720  0.86250  0.99764  Biso   1.000  N
  N74      1.0000 0.63180  0.95180  0.95768  Biso   1.000  N
  N75      1.0000 0.56070  0.87960  0.96066  Biso   1.000  N
  N76      1.0000 0.71690  0.82510  0.02262  Biso   1.000  N
  N77      1.0000 0.80920  0.72560  0.05066  Biso   1.000  N
  N78      1.0000 0.77130  0.80140  0.06882  Biso   1.000  N
  C49      1.0000 0.69710  0.94640  0.98110  Biso   1.000  C
  H49      1.0000 0.75100  0.99010  0.98530  Biso   1.000  H
  C50      1.0000 0.58390  0.82580  0.98420  Biso   1.000  C
  H50      1.0000 0.54750  0.76930  0.99090  Biso   1.000  H
  C51      1.0000 0.71250  0.85870  0.05184  Biso   1.000  C
  H51      1.0000 0.67390  0.91340  0.05870  Biso   1.000  H
  C52      1.0000 0.77720  0.74080  0.02377  Biso   1.000  C
  H52      1.0000 0.79290  0.69990  0.00720  Biso   1.000  H
  Ag14     1.0000 0.11829  0.41925  0.06994  Biso   1.000  Ag
  N79      1.0000 0.33280  0.13750  0.99764  Biso   1.000  N
  N80      1.0000 0.36820  0.04820  0.95768  Biso   1.000  N
  N81      1.0000 0.43930  0.12040  0.96066  Biso   1.000  N
  N82      1.0000 0.28310  0.17490  0.02262  Biso   1.000  N
  N83      1.0000 0.19080  0.27440  0.05066  Biso   1.000  N
  N84      1.0000 0.22870  0.19860  0.06882  Biso   1.000  N
  C53      1.0000 0.30290  0.05360  0.98110  Biso   1.000  C
  H53      1.0000 0.24900  0.00990  0.98530  Biso   1.000  H
  C54      1.0000 0.41610  0.17420  0.98420  Biso   1.000  C
  H54      1.0000 0.45250  0.23070  0.99090  Biso   1.000  H
  C55      1.0000 0.28750  0.14130  0.05184  Biso   1.000  C
  H55      1.0000 0.32610  0.08660  0.05870  Biso   1.000  H
  C56      1.0000 0.22280  0.25920  0.02377  Biso   1.000  C
  H56      1.0000 0.20710  0.30010  0.00720  Biso   1.000  H
  Ag15     1.0000 0.41925  0.88171  0.93006  Biso   1.000  Ag
  N85      1.0000 0.13750  0.66720  0.00236  Biso   1.000  N
  N86      1.0000 0.04820  0.63180  0.04232  Biso   1.000  N
  N87      1.0000 0.12040  0.56070  0.03934  Biso   1.000  N
  N88      1.0000 0.17490  0.71690  0.97738  Biso   1.000  N
  N89      1.0000 0.27440  0.80920  0.94934  Biso   1.000  N
  N90      1.0000 0.19860  0.77130  0.93118  Biso   1.000  N
  C57      1.0000 0.05360  0.69710  0.01890  Biso   1.000  C
  H57      1.0000 0.00990  0.75100  0.01470  Biso   1.000  H
  C58      1.0000 0.17420  0.58390  0.01580  Biso   1.000  C
  H58      1.0000 0.23070  0.54750  0.00910  Biso   1.000  H
  C59      1.0000 0.14130  0.71250  0.94816  Biso   1.000  C
  H59      1.0000 0.08660  0.67390  0.94130  Biso   1.000  H
  C60      1.0000 0.25920  0.77720  0.97623  Biso   1.000  C
  H60      1.0000 0.30010  0.79290  0.99280  Biso   1.000  H
  Ag16     1.0000 0.58075  0.11829  0.93006  Biso   1.000  Ag
  N91      1.0000 0.86250  0.33280  0.00236  Biso   1.000  N
  N92      1.0000 0.95180  0.36820  0.04232  Biso   1.000  N
  N93      1.0000 0.87960  0.43930  0.03934  Biso   1.000  N
  N94      1.0000 0.82510  0.28310  0.97738  Biso   1.000  N
  N95      1.0000 0.72560  0.19080  0.94934  Biso   1.000  N
  N96      1.0000 0.80140  0.22870  0.93118  Biso   1.000  N
  C61      1.0000 0.94640  0.30290  0.01890  Biso   1.000  C
  H61      1.0000 0.99010  0.24900  0.01470  Biso   1.000  H
  C62      1.0000 0.82580  0.41610  0.01580  Biso   1.000  C
  H62      1.0000 0.76930  0.45250  0.00910  Biso   1.000  H
  C63      1.0000 0.85870  0.28750  0.94816  Biso   1.000  C
  H63      1.0000 0.91340  0.32610  0.94130  Biso   1.000  H
  C64      1.0000 0.74080  0.22280  0.97623  Biso   1.000  C
  H64      1.0000 0.69990  0.20710  0.99280  Biso   1.000  H
