data_image0
_cell_length_a       20.0192
_cell_length_b       20.2497
_cell_length_c       20.3216
_cell_angle_alpha    119.179
_cell_angle_beta     100.968
_cell_angle_gamma    101.341

_symmetry_space_group_name_H-M    "P 1"
_symmetry_int_tables_number       1

loop_
  _symmetry_equiv_pos_as_xyz
  'x, y, z'

loop_
  _atom_site_label
  _atom_site_occupancy
  _atom_site_fract_x
  _atom_site_fract_y
  _atom_site_fract_z
  _atom_site_thermal_displace_type
  _atom_site_B_iso_or_equiv
  _atom_site_type_symbol
  Er1      1.0000 0.17813  0.09234  0.25593  Biso   1.000  Er
  Er2      1.0000 0.02459  0.73281  0.88417  Biso   1.000  Er
  Er3      1.0000 0.80599  0.91514  0.08555  Biso   1.000  Er
  Cu1      1.0000 0.89048  0.08928  0.09491  Biso   1.000  Cu
  Cu2      1.0000 0.99063  0.00720  0.16858  Biso   1.000  Cu
  Cu3      1.0000 0.09812  0.91434  0.07164  Biso   1.000  Cu
  Cu4      1.0000 0.18117  0.08484  0.08362  Biso   1.000  Cu
  Cu5      1.0000 0.91843  0.83140  0.98737  Biso   1.000  Cu
  Cu6      1.0000 0.07312  0.17524  0.18093  Biso   1.000  Cu
  Cu7      1.0000 0.69984  0.74560  0.07333  Biso   1.000  Cu
  Cu8      1.0000 0.87320  0.38101  0.21308  Biso   1.000  Cu
  Cu9      1.0000 0.77123  0.91123  0.24760  Biso   1.000  Cu
  Cu10     1.0000 0.04493  0.46245  0.29268  Biso   1.000  Cu
  Cu11     1.0000 0.36469  0.18430  0.36562  Biso   1.000  Cu
  Cu12     1.0000 0.29307  0.03007  0.35141  Biso   1.000  Cu
  N1       1.0000 0.44230  0.22750  0.33640  Biso   1.000  N
  H1       1.0000 0.46400  0.28050  0.37300  Biso   1.000  H
  H2       1.0000 0.47560  0.20340  0.33590  Biso   1.000  H
  N2       1.0000 0.29520  0.92000  0.31230  Biso   1.000  N
  H3       1.0000 0.34100  0.92020  0.31780  Biso   1.000  H
  H4       1.0000 0.27870  0.90270  0.34130  Biso   1.000  H
  N3       1.0000 0.52910  0.25460  0.59670  Biso   1.000  N
  H5       1.0000 0.55940  0.27050  0.64390  Biso   1.000  H
  H6       1.0000 0.50950  0.29210  0.60240  Biso   1.000  H
  H7       1.0000 0.55300  0.24700  0.56240  Biso   1.000  H
  N4       1.0000 0.40290  0.50530  0.48020  Biso   1.000  N
  H8       1.0000 0.40250  0.55130  0.52120  Biso   1.000  H
  H9       1.0000 0.38960  0.50560  0.43550  Biso   1.000  H
  N5       1.0000 0.20690  0.65240  0.75440  Biso   1.000  N
  H10      1.0000 0.24600  0.64400  0.77480  Biso   1.000  H
  H11      1.0000 0.19410  0.62270  0.70080  Biso   1.000  H
  N6       1.0000 0.12310  0.50110  0.39220  Biso   1.000  N
  H12      1.0000 0.10860  0.52670  0.43450  Biso   1.000  H
  H13      1.0000 0.16240  0.53630  0.39770  Biso   1.000  H
  N7       1.0000 0.70200  0.63580  0.01010  Biso   1.000  N
  H14      1.0000 0.69720  0.61200  0.03730  Biso   1.000  H
  H15      1.0000 0.66460  0.60700  0.96390  Biso   1.000  H
  N8       1.0000 0.83960  0.96280  0.35650  Biso   1.000  N
  H16      1.0000 0.82940  0.00530  0.39100  Biso   1.000  H
  H17      1.0000 0.83540  0.92780  0.37170  Biso   1.000  H
  N9       1.0000 0.49300  0.56860  0.10670  Biso   1.000  N
  H18      1.0000 0.44670  0.56600  0.10180  Biso   1.000  H
  H19      1.0000 0.50690  0.55040  0.13770  Biso   1.000  H
  C1       1.0000 0.33330  0.16580  0.21690  Biso   1.000  C
  C2       1.0000 0.41280  0.21380  0.25780  Biso   1.000  C
  H20      1.0000 0.43900  0.18580  0.22410  Biso   1.000  H
  H21      1.0000 0.42080  0.26530  0.26340  Biso   1.000  H
  C3       1.0000 0.20790  0.90470  0.19710  Biso   1.000  C
  C4       1.0000 0.24990  0.86590  0.22780  Biso   1.000  C
  H22      1.0000 0.21640  0.81960  0.22100  Biso   1.000  H
  H23      1.0000 0.28050  0.84690  0.19600  Biso   1.000  H
  C5       1.0000 0.41910  0.15080  0.48560  Biso   1.000  C
  C6       1.0000 0.47140  0.17880  0.56610  Biso   1.000  C
  H24      1.0000 0.44560  0.18680  0.60380  Biso   1.000  H
  H25      1.0000 0.49260  0.13800  0.56050  Biso   1.000  H
  C7       1.0000 0.38390  0.37000  0.45280  Biso   1.000  C
  C8       1.0000 0.35160  0.43720  0.47120  Biso   1.000  C
  H26      1.0000 0.30710  0.41740  0.42810  Biso   1.000  H
  H27      1.0000 0.34020  0.45390  0.52010  Biso   1.000  H
  C9       1.0000 0.17150  0.77360  0.81870  Biso   1.000  C
  C10      1.0000 0.22470  0.73750  0.78300  Biso   1.000  C
  H28      1.0000 0.22410  0.74200  0.73800  Biso   1.000  H
  H29      1.0000 0.27240  0.76800  0.82170  Biso   1.000  H
  C11      1.0000 0.10390  0.35630  0.30960  Biso   1.000  C
  C12      1.0000 0.14130  0.43530  0.39070  Biso   1.000  C
  H30      1.0000 0.19320  0.44780  0.40390  Biso   1.000  H
  H31      1.0000 0.12770  0.42910  0.43120  Biso   1.000  H
  C13      1.0000 0.80780  0.71650  0.00580  Biso   1.000  C
  C14      1.0000 0.76920  0.63710  0.99340  Biso   1.000  C
  H32      1.0000 0.75920  0.59410  0.93850  Biso   1.000  H
  H33      1.0000 0.80030  0.62740  0.02800  Biso   1.000  H
  C15      1.0000 0.91680  0.98240  0.28120  Biso   1.000  C
  C16      1.0000 0.91370  0.98940  0.35750  Biso   1.000  C
  H34      1.0000 0.93970  0.95740  0.36680  Biso   1.000  H
  H35      1.0000 0.93800  0.04490  0.40160  Biso   1.000  H
  C17      1.0000 0.57790  0.65950  0.09180  Biso   1.000  C
  C18      1.0000 0.53820  0.65130  0.14420  Biso   1.000  C
  H36      1.0000 0.57270  0.66900  0.19500  Biso   1.000  H
  H37      1.0000 0.50850  0.68530  0.15450  Biso   1.000  H
  O1       1.0000 0.01240  0.81730  0.01450  Biso   1.000  O
  H38      1.0000 0.01170  0.79000  0.04320  Biso   1.000  H
  O2       1.0000 0.92100  0.89780  0.09750  Biso   1.000  O
  H39      1.0000 0.92570  0.86820  0.12350  Biso   1.000  H
  O3       1.0000 0.07490  0.97160  0.16990  Biso   1.000  O
  H40      1.0000 0.07220  0.93970  0.19390  Biso   1.000  H
  O4       1.0000 0.06320  0.11540  0.23350  Biso   1.000  O
  H41      1.0000 0.05560  0.14750  0.28440  Biso   1.000  H
  O5       1.0000 0.97700  0.18460  0.16840  Biso   1.000  O
  H42      1.0000 0.97170  0.21270  0.22130  Biso   1.000  H
  O6       1.0000 0.90490  0.03930  0.15570  Biso   1.000  O
  H43      1.0000 0.90210  0.07410  0.20870  Biso   1.000  H
  O7       1.0000 0.17330  0.15100  0.04010  Biso   1.000  O
  H44      1.0000 0.21170  0.20340  0.07630  Biso   1.000  H
  O8       1.0000 0.08190  0.22880  0.12260  Biso   1.000  O
  H45      1.0000 0.12480  0.27740  0.15460  Biso   1.000  H
  O9       1.0000 0.16480  0.15620  0.18320  Biso   1.000  O
  H46      1.0000 0.20380  0.20830  0.21300  Biso   1.000  H
  O10      1.0000 0.19150  0.01160  0.98080  Biso   1.000  O
  H47      1.0000 0.23670  0.00040  0.98960  Biso   1.000  H
  O11      1.0000 0.17910  0.01370  0.12280  Biso   1.000  O
  H48      1.0000 0.22400  0.00110  0.12500  Biso   1.000  H
  O12      1.0000 0.11730  0.86440  0.97040  Biso   1.000  O
  H49      1.0000 0.16470  0.85790  0.97970  Biso   1.000  H
  O13      1.0000 0.27550  0.12680  0.36820  Biso   1.000  O
  H50      1.0000 0.26710  0.15740  0.41900  Biso   1.000  H
  O14      1.0000 0.96400  0.39850  0.19040  Biso   1.000  O
  H51      1.0000 0.96390  0.42450  0.16040  Biso   1.000  H
  O15      1.0000 0.72080  0.86320  0.13350  Biso   1.000  O
  H52      1.0000 0.67660  0.87640  0.12530  Biso   1.000  H
  O16      1.0000 0.07000  0.98400  0.01900  Biso   1.000  O
  O17      1.0000 0.98800  0.94800  0.03100  Biso   1.000  O
  O18      1.0000 0.05800  0.07420  0.06200  Biso   1.000  O
  O19      1.0000 0.01200  0.95400  0.92530  Biso   1.000  O
  O20      1.0000 0.30290  0.14650  0.14820  Biso   1.000  O
  O21      1.0000 0.30070  0.14970  0.25860  Biso   1.000  O
  O22      1.0000 0.21880  0.97960  0.24620  Biso   1.000  O
  O23      1.0000 0.16730  0.86490  0.12720  Biso   1.000  O
  O24      1.0000 0.37160  0.08410  0.45260  Biso   1.000  O
  O25      1.0000 0.42790  0.19650  0.46060  Biso   1.000  O
  O26      1.0000 0.34430  0.30260  0.43050  Biso   1.000  O
  O27      1.0000 0.45010  0.38880  0.46370  Biso   1.000  O
  O28      1.0000 0.12280  0.72870  0.82720  Biso   1.000  O
  O29      1.0000 0.17840  0.84330  0.84010  Biso   1.000  O
  O30      1.0000 0.05810  0.35750  0.25630  Biso   1.000  O
  O31      1.0000 0.11920  0.29660  0.29860  Biso   1.000  O
  O32      1.0000 0.78320  0.77380  0.04100  Biso   1.000  O
  O33      1.0000 0.86000  0.72240  0.98270  Biso   1.000  O
  O34      1.0000 0.85590  0.94850  0.22290  Biso   1.000  O
  O35      1.0000 0.97590  0.00820  0.27670  Biso   1.000  O
  O36      1.0000 0.62670  0.72590  0.12140  Biso   1.000  O
  O37      1.0000 0.56270  0.60070  0.02210  Biso   1.000  O
  Er4      1.0000 0.82187  0.90766  0.74407  Biso   1.000  Er
  Er5      1.0000 0.97541  0.26719  0.11583  Biso   1.000  Er
  Er6      1.0000 0.19401  0.08486  0.91445  Biso   1.000  Er
  Cu13     1.0000 0.10952  0.91072  0.90509  Biso   1.000  Cu
  Cu14     1.0000 0.00937  0.99280  0.83142  Biso   1.000  Cu
  Cu15     1.0000 0.90188  0.08566  0.92836  Biso   1.000  Cu
  Cu16     1.0000 0.81883  0.91516  0.91638  Biso   1.000  Cu
  Cu17     1.0000 0.08157  0.16860  0.01263  Biso   1.000  Cu
  Cu18     1.0000 0.92688  0.82476  0.81907  Biso   1.000  Cu
  Cu19     1.0000 0.30016  0.25440  0.92667  Biso   1.000  Cu
  Cu20     1.0000 0.12680  0.61899  0.78692  Biso   1.000  Cu
  Cu21     1.0000 0.22877  0.08877  0.75240  Biso   1.000  Cu
  Cu22     1.0000 0.95507  0.53755  0.70732  Biso   1.000  Cu
  Cu23     1.0000 0.63531  0.81570  0.63438  Biso   1.000  Cu
  Cu24     1.0000 0.70693  0.96993  0.64859  Biso   1.000  Cu
  N10      1.0000 0.55770  0.77250  0.66360  Biso   1.000  N
  H53      1.0000 0.53600  0.71950  0.62700  Biso   1.000  H
  H54      1.0000 0.52440  0.79660  0.66410  Biso   1.000  H
  N11      1.0000 0.70480  0.08000  0.68770  Biso   1.000  N
  H55      1.0000 0.65900  0.07980  0.68220  Biso   1.000  H
  H56      1.0000 0.72130  0.09730  0.65870  Biso   1.000  H
  N12      1.0000 0.47090  0.74540  0.40330  Biso   1.000  N
  H57      1.0000 0.44060  0.72950  0.35610  Biso   1.000  H
  H58      1.0000 0.49050  0.70790  0.39760  Biso   1.000  H
  H59      1.0000 0.44700  0.75300  0.43760  Biso   1.000  H
  N13      1.0000 0.59710  0.49470  0.51980  Biso   1.000  N
  H60      1.0000 0.59750  0.44870  0.47880  Biso   1.000  H
  H61      1.0000 0.61040  0.49440  0.56450  Biso   1.000  H
  N14      1.0000 0.79310  0.34760  0.24560  Biso   1.000  N
  H62      1.0000 0.75400  0.35600  0.22520  Biso   1.000  H
  H63      1.0000 0.80590  0.37730  0.29920  Biso   1.000  H
  N15      1.0000 0.87690  0.49890  0.60780  Biso   1.000  N
  H64      1.0000 0.89140  0.47330  0.56550  Biso   1.000  H
  H65      1.0000 0.83760  0.46370  0.60230  Biso   1.000  H
  N16      1.0000 0.29800  0.36420  0.98990  Biso   1.000  N
  H66      1.0000 0.30280  0.38800  0.96270  Biso   1.000  H
  H67      1.0000 0.33540  0.39300  0.03610  Biso   1.000  H
  N17      1.0000 0.16040  0.03720  0.64350  Biso   1.000  N
  H68      1.0000 0.17060  0.99470  0.60900  Biso   1.000  H
  H69      1.0000 0.16460  0.07220  0.62830  Biso   1.000  H
  N18      1.0000 0.50700  0.43140  0.89330  Biso   1.000  N
  H70      1.0000 0.55330  0.43400  0.89820  Biso   1.000  H
  H71      1.0000 0.49310  0.44960  0.86230  Biso   1.000  H
  C19      1.0000 0.66670  0.83420  0.78310  Biso   1.000  C
  C20      1.0000 0.58720  0.78620  0.74220  Biso   1.000  C
  H72      1.0000 0.56100  0.81420  0.77590  Biso   1.000  H
  H73      1.0000 0.57920  0.73470  0.73660  Biso   1.000  H
  C21      1.0000 0.79210  0.09530  0.80290  Biso   1.000  C
  C22      1.0000 0.75010  0.13410  0.77220  Biso   1.000  C
  H74      1.0000 0.78360  0.18040  0.77900  Biso   1.000  H
  H75      1.0000 0.71950  0.15310  0.80400  Biso   1.000  H
  C23      1.0000 0.58090  0.84920  0.51440  Biso   1.000  C
  C24      1.0000 0.52860  0.82120  0.43390  Biso   1.000  C
  H76      1.0000 0.55440  0.81320  0.39620  Biso   1.000  H
  H77      1.0000 0.50740  0.86200  0.43950  Biso   1.000  H
  C25      1.0000 0.61610  0.63000  0.54720  Biso   1.000  C
  C26      1.0000 0.64840  0.56280  0.52880  Biso   1.000  C
  H78      1.0000 0.69290  0.58260  0.57190  Biso   1.000  H
  H79      1.0000 0.65980  0.54610  0.47990  Biso   1.000  H
  C27      1.0000 0.82850  0.22640  0.18130  Biso   1.000  C
  C28      1.0000 0.77530  0.26250  0.21700  Biso   1.000  C
  H80      1.0000 0.77590  0.25800  0.26200  Biso   1.000  H
  H81      1.0000 0.72760  0.23200  0.17830  Biso   1.000  H
  C29      1.0000 0.89610  0.64370  0.69040  Biso   1.000  C
  C30      1.0000 0.85870  0.56470  0.60930  Biso   1.000  C
  H82      1.0000 0.80680  0.55220  0.59610  Biso   1.000  H
  H83      1.0000 0.87230  0.57090  0.56880  Biso   1.000  H
  C31      1.0000 0.19220  0.28350  0.99420  Biso   1.000  C
  C32      1.0000 0.23080  0.36290  0.00660  Biso   1.000  C
  H84      1.0000 0.24080  0.40590  0.06150  Biso   1.000  H
  H85      1.0000 0.19970  0.37260  0.97200  Biso   1.000  H
  C33      1.0000 0.08320  0.01760  0.71880  Biso   1.000  C
  C34      1.0000 0.08630  0.01060  0.64250  Biso   1.000  C
  H86      1.0000 0.06030  0.04260  0.63320  Biso   1.000  H
  H87      1.0000 0.06200  0.95510  0.59840  Biso   1.000  H
  C35      1.0000 0.42210  0.34050  0.90820  Biso   1.000  C
  C36      1.0000 0.46180  0.34870  0.85580  Biso   1.000  C
  H88      1.0000 0.42730  0.33100  0.80500  Biso   1.000  H
  H89      1.0000 0.49150  0.31470  0.84550  Biso   1.000  H
  O38      1.0000 0.98760  0.18270  0.98550  Biso   1.000  O
  H90      1.0000 0.98830  0.21000  0.95680  Biso   1.000  H
  O39      1.0000 0.07900  0.10220  0.90250  Biso   1.000  O
  H91      1.0000 0.07430  0.13180  0.87650  Biso   1.000  H
  O40      1.0000 0.92510  0.02840  0.83010  Biso   1.000  O
  H92      1.0000 0.92780  0.06030  0.80610  Biso   1.000  H
  O41      1.0000 0.93680  0.88460  0.76650  Biso   1.000  O
  H93      1.0000 0.94440  0.85250  0.71560  Biso   1.000  H
  O42      1.0000 0.02300  0.81540  0.83160  Biso   1.000  O
  H94      1.0000 0.02830  0.78730  0.77870  Biso   1.000  H
  O43      1.0000 0.09510  0.96070  0.84430  Biso   1.000  O
  H95      1.0000 0.09790  0.92590  0.79130  Biso   1.000  H
  O44      1.0000 0.82670  0.84900  0.95990  Biso   1.000  O
  H96      1.0000 0.78830  0.79660  0.92370  Biso   1.000  H
  O45      1.0000 0.91810  0.77120  0.87740  Biso   1.000  O
  H97      1.0000 0.87520  0.72260  0.84540  Biso   1.000  H
  O46      1.0000 0.83520  0.84380  0.81680  Biso   1.000  O
  H98      1.0000 0.79620  0.79170  0.78700  Biso   1.000  H
  O47      1.0000 0.80850  0.98840  0.01920  Biso   1.000  O
  H99      1.0000 0.76330  0.99960  0.01040  Biso   1.000  H
  O48      1.0000 0.82090  0.98630  0.87720  Biso   1.000  O
  H100     1.0000 0.77600  0.99890  0.87500  Biso   1.000  H
  O49      1.0000 0.88270  0.13560  0.02960  Biso   1.000  O
  H101     1.0000 0.83530  0.14210  0.02030  Biso   1.000  H
  O50      1.0000 0.72450  0.87320  0.63180  Biso   1.000  O
  H102     1.0000 0.73290  0.84260  0.58100  Biso   1.000  H
  O51      1.0000 0.03600  0.60150  0.80960  Biso   1.000  O
  H103     1.0000 0.03610  0.57550  0.83960  Biso   1.000  H
  O52      1.0000 0.27920  0.13680  0.86650  Biso   1.000  O
  H104     1.0000 0.32340  0.12360  0.87470  Biso   1.000  H
  O53      1.0000 0.93000  0.01600  0.98100  Biso   1.000  O
  O54      1.0000 0.01200  0.05200  0.96900  Biso   1.000  O
  O55      1.0000 0.94200  0.92580  0.93800  Biso   1.000  O
  O56      1.0000 0.98800  0.04600  0.07470  Biso   1.000  O
  O57      1.0000 0.69710  0.85350  0.85180  Biso   1.000  O
  O58      1.0000 0.69930  0.85030  0.74140  Biso   1.000  O
  O59      1.0000 0.78120  0.02040  0.75380  Biso   1.000  O
  O60      1.0000 0.83270  0.13510  0.87280  Biso   1.000  O
  O61      1.0000 0.62840  0.91590  0.54740  Biso   1.000  O
  O62      1.0000 0.57210  0.80350  0.53940  Biso   1.000  O
  O63      1.0000 0.65570  0.69740  0.56950  Biso   1.000  O
  O64      1.0000 0.54990  0.61120  0.53630  Biso   1.000  O
  O65      1.0000 0.87720  0.27130  0.17280  Biso   1.000  O
  O66      1.0000 0.82160  0.15670  0.15990  Biso   1.000  O
  O67      1.0000 0.94190  0.64250  0.74370  Biso   1.000  O
  O68      1.0000 0.88080  0.70340  0.70140  Biso   1.000  O
  O69      1.0000 0.21680  0.22620  0.95900  Biso   1.000  O
  O70      1.0000 0.14000  0.27760  0.01730  Biso   1.000  O
  O71      1.0000 0.14410  0.05150  0.77710  Biso   1.000  O
  O72      1.0000 0.02410  0.99180  0.72330  Biso   1.000  O
  O73      1.0000 0.37330  0.27410  0.87860  Biso   1.000  O
  O74      1.0000 0.43730  0.39930  0.97790  Biso   1.000  O
  Cu25     1.0000 0.50000  0.50000  0.00000  Biso   1.000  Cu
  Cu26     1.0000 0.50000  0.50000  0.50000  Biso   1.000  Cu
  Cl1      1.0000 0.00000  0.00000  0.00000  Biso   1.000  Cl
