data_image0
_cell_length_a       9.1255
_cell_length_b       11.542
_cell_length_c       23.556
_cell_angle_alpha    90
_cell_angle_beta     97.81
_cell_angle_gamma    90

_symmetry_space_group_name_H-M    "P 1"
_symmetry_int_tables_number       1

loop_
  _symmetry_equiv_pos_as_xyz
  'x, y, z'

loop_
  _atom_site_label
  _atom_site_occupancy
  _atom_site_fract_x
  _atom_site_fract_y
  _atom_site_fract_z
  _atom_site_thermal_displace_type
  _atom_site_B_iso_or_equiv
  _atom_site_type_symbol
  Pb1      1.0000 0.40257  0.74855  0.15831  Biso   1.000  Pb
  O1       1.0000 0.90520  0.43570  0.11750  Biso   1.000  O
  O2       1.0000 0.05460  0.93250  0.18100  Biso   1.000  O
  O3       1.0000 0.52090  0.19500  0.92790  Biso   1.000  O
  O4       1.0000 0.20100  0.86750  0.12030  Biso   1.000  O
  O5       1.0000 0.30820  0.24310  0.87790  Biso   1.000  O
  O6       1.0000 0.77240  0.54930  0.05480  Biso   1.000  O
  O7       1.0000 0.75970  0.24140  0.07460  Biso   1.000  O
  O8       1.0000 0.15980  0.18280  0.96530  Biso   1.000  O
  C1       1.0000 0.05700  0.03330  0.09450  Biso   1.000  C
  C2       1.0000 0.09170  0.14910  0.01290  Biso   1.000  C
  C3       1.0000 0.71850  0.34840  0.04660  Biso   1.000  C
  H1       1.0000 0.61390  0.36180  0.04750  Biso   1.000  H
  H2       1.0000 0.73400  0.34280  0.00670  Biso   1.000  H
  C4       1.0000 0.93450  0.09770  0.10210  Biso   1.000  C
  H3       1.0000 0.88190  0.08120  0.13230  Biso   1.000  H
  C5       1.0000 0.80570  0.45130  0.07400  Biso   1.000  C
  C6       1.0000 0.30950  0.14250  0.96750  Biso   1.000  C
  H4       1.0000 0.30990  0.05910  0.96250  Biso   1.000  H
  H5       1.0000 0.36440  0.16040  0.00470  Biso   1.000  H
  C7       1.0000 0.89020  0.18660  0.06480  Biso   1.000  C
  C8       1.0000 0.96720  0.21430  0.01970  Biso   1.000  C
  H6       1.0000 0.93640  0.27480  0.99480  Biso   1.000  H
  C9       1.0000 0.13560  0.05740  0.04780  Biso   1.000  C
  H7       1.0000 0.21540  0.01160  0.04110  Biso   1.000  H
  C10      1.0000 0.10970  0.93800  0.13610  Biso   1.000  C
  C11      1.0000 0.38240  0.19930  0.92140  Biso   1.000  C
  Pb2      1.0000 0.59743  0.25145  0.84169  Biso   1.000  Pb
  O9       1.0000 0.09480  0.56430  0.88250  Biso   1.000  O
  O10      1.0000 0.94540  0.06750  0.81900  Biso   1.000  O
  O11      1.0000 0.47910  0.80500  0.07210  Biso   1.000  O
  O12      1.0000 0.79900  0.13250  0.87970  Biso   1.000  O
  O13      1.0000 0.69180  0.75690  0.12210  Biso   1.000  O
  O14      1.0000 0.22760  0.45070  0.94520  Biso   1.000  O
  O15      1.0000 0.24030  0.75860  0.92540  Biso   1.000  O
  O16      1.0000 0.84020  0.81720  0.03470  Biso   1.000  O
  C12      1.0000 0.94300  0.96670  0.90550  Biso   1.000  C
  C13      1.0000 0.90830  0.85090  0.98710  Biso   1.000  C
  C14      1.0000 0.28150  0.65160  0.95340  Biso   1.000  C
  H8       1.0000 0.38610  0.63820  0.95250  Biso   1.000  H
  H9       1.0000 0.26600  0.65720  0.99330  Biso   1.000  H
  C15      1.0000 0.06550  0.90230  0.89790  Biso   1.000  C
  H10      1.0000 0.11810  0.91880  0.86770  Biso   1.000  H
  C16      1.0000 0.19430  0.54870  0.92600  Biso   1.000  C
  C17      1.0000 0.69050  0.85750  0.03250  Biso   1.000  C
  H11      1.0000 0.69010  0.94090  0.03750  Biso   1.000  H
  H12      1.0000 0.63560  0.83960  0.99530  Biso   1.000  H
  C18      1.0000 0.10980  0.81340  0.93520  Biso   1.000  C
  C19      1.0000 0.03280  0.78570  0.98030  Biso   1.000  C
  H13      1.0000 0.06360  0.72520  0.00520  Biso   1.000  H
  C20      1.0000 0.86440  0.94260  0.95220  Biso   1.000  C
  H14      1.0000 0.78460  0.98840  0.95890  Biso   1.000  H
  C21      1.0000 0.89030  0.06200  0.86390  Biso   1.000  C
  C22      1.0000 0.61760  0.80070  0.07860  Biso   1.000  C
  Pb3      1.0000 0.59743  0.24855  0.34169  Biso   1.000  Pb
  O17      1.0000 0.09480  0.93570  0.38250  Biso   1.000  O
  O18      1.0000 0.94540  0.43250  0.31900  Biso   1.000  O
  O19      1.0000 0.47910  0.69500  0.57210  Biso   1.000  O
  O20      1.0000 0.79900  0.36750  0.37970  Biso   1.000  O
  O21      1.0000 0.69180  0.74310  0.62210  Biso   1.000  O
  O22      1.0000 0.22760  0.04930  0.44520  Biso   1.000  O
  O23      1.0000 0.24030  0.74140  0.42540  Biso   1.000  O
  O24      1.0000 0.84020  0.68280  0.53470  Biso   1.000  O
  C23      1.0000 0.94300  0.53330  0.40550  Biso   1.000  C
  C24      1.0000 0.90830  0.64910  0.48710  Biso   1.000  C
  C25      1.0000 0.28150  0.84840  0.45340  Biso   1.000  C
  H15      1.0000 0.38610  0.86180  0.45250  Biso   1.000  H
  H16      1.0000 0.26600  0.84280  0.49330  Biso   1.000  H
  C26      1.0000 0.06550  0.59770  0.39790  Biso   1.000  C
  H17      1.0000 0.11810  0.58120  0.36770  Biso   1.000  H
  C27      1.0000 0.19430  0.95130  0.42600  Biso   1.000  C
  C28      1.0000 0.69050  0.64250  0.53250  Biso   1.000  C
  H18      1.0000 0.69010  0.55910  0.53750  Biso   1.000  H
  H19      1.0000 0.63560  0.66040  0.49530  Biso   1.000  H
  C29      1.0000 0.10980  0.68660  0.43520  Biso   1.000  C
  C30      1.0000 0.03280  0.71430  0.48030  Biso   1.000  C
  H20      1.0000 0.06360  0.77480  0.50520  Biso   1.000  H
  C31      1.0000 0.86440  0.55740  0.45220  Biso   1.000  C
  H21      1.0000 0.78460  0.51160  0.45890  Biso   1.000  H
  C32      1.0000 0.89030  0.43800  0.36390  Biso   1.000  C
  C33      1.0000 0.61760  0.69930  0.57860  Biso   1.000  C
  Pb4      1.0000 0.40257  0.75145  0.65831  Biso   1.000  Pb
  O25      1.0000 0.90520  0.06430  0.61750  Biso   1.000  O
  O26      1.0000 0.05460  0.56750  0.68100  Biso   1.000  O
  O27      1.0000 0.52090  0.30500  0.42790  Biso   1.000  O
  O28      1.0000 0.20100  0.63250  0.62030  Biso   1.000  O
  O29      1.0000 0.30820  0.25690  0.37790  Biso   1.000  O
  O30      1.0000 0.77240  0.95070  0.55480  Biso   1.000  O
  O31      1.0000 0.75970  0.25860  0.57460  Biso   1.000  O
  O32      1.0000 0.15980  0.31720  0.46530  Biso   1.000  O
  C34      1.0000 0.05700  0.46670  0.59450  Biso   1.000  C
  C35      1.0000 0.09170  0.35090  0.51290  Biso   1.000  C
  C36      1.0000 0.71850  0.15160  0.54660  Biso   1.000  C
  H22      1.0000 0.61390  0.13820  0.54750  Biso   1.000  H
  H23      1.0000 0.73400  0.15720  0.50670  Biso   1.000  H
  C37      1.0000 0.93450  0.40230  0.60210  Biso   1.000  C
  H24      1.0000 0.88190  0.41880  0.63230  Biso   1.000  H
  C38      1.0000 0.80570  0.04870  0.57400  Biso   1.000  C
  C39      1.0000 0.30950  0.35750  0.46750  Biso   1.000  C
  H25      1.0000 0.30990  0.44090  0.46250  Biso   1.000  H
  H26      1.0000 0.36440  0.33960  0.50470  Biso   1.000  H
  C40      1.0000 0.89020  0.31340  0.56480  Biso   1.000  C
  C41      1.0000 0.96720  0.28570  0.51970  Biso   1.000  C
  H27      1.0000 0.93640  0.22520  0.49480  Biso   1.000  H
  C42      1.0000 0.13560  0.44260  0.54780  Biso   1.000  C
  H28      1.0000 0.21540  0.48840  0.54110  Biso   1.000  H
  C43      1.0000 0.10970  0.56200  0.63610  Biso   1.000  C
  C44      1.0000 0.38240  0.30070  0.42140  Biso   1.000  C
