data_image0
_cell_length_a       17.559
_cell_length_b       11.426
_cell_length_c       21.736
_cell_angle_alpha    90
_cell_angle_beta     114.588
_cell_angle_gamma    90

_symmetry_space_group_name_H-M    "P 1"
_symmetry_int_tables_number       1

loop_
  _symmetry_equiv_pos_as_xyz
  'x, y, z'

loop_
  _atom_site_label
  _atom_site_occupancy
  _atom_site_fract_x
  _atom_site_fract_y
  _atom_site_fract_z
  _atom_site_thermal_displace_type
  _atom_site_B_iso_or_equiv
  _atom_site_type_symbol
  C1       1.0000 0.33520  0.60240  0.64950  Biso   1.000  C
  H1       1.0000 0.35570  0.56710  0.62090  Biso   1.000  H
  C2       1.0000 0.25430  0.60770  0.63820  Biso   1.000  C
  H2       1.0000 0.20930  0.57630  0.60160  Biso   1.000  H
  C3       1.0000 0.33060  0.70000  0.73460  Biso   1.000  C
  H3       1.0000 0.34550  0.74350  0.77400  Biso   1.000  H
  C4       1.0000 0.17810  0.68880  0.70510  Biso   1.000  C
  C5       1.0000 0.10830  0.61850  0.67100  Biso   1.000  C
  H4       1.0000 0.10750  0.56500  0.63850  Biso   1.000  H
  C6       1.0000 0.03940  0.63090  0.68710  Biso   1.000  C
  H5       1.0000 0.99210  0.58520  0.66460  Biso   1.000  H
  C7       1.0000 0.04000  0.70960  0.73580  Biso   1.000  C
  C8       1.0000 0.10980  0.78130  0.76720  Biso   1.000  C
  H6       1.0000 0.11030  0.83610  0.79900  Biso   1.000  H
  C9       1.0000 0.17890  0.77180  0.75150  Biso   1.000  C
  H7       1.0000 0.22500  0.82080  0.77200  Biso   1.000  H
  C10      1.0000 0.89440  0.65160  0.71800  Biso   1.000  C
  H8       1.0000 0.89130  0.60730  0.68110  Biso   1.000  H
  C11      1.0000 0.82640  0.65180  0.73630  Biso   1.000  C
  H9       1.0000 0.77880  0.60760  0.71200  Biso   1.000  H
  C12      1.0000 0.83120  0.71770  0.79030  Biso   1.000  C
  C13      1.0000 0.90240  0.78140  0.82780  Biso   1.000  C
  H10      1.0000 0.90530  0.82460  0.86500  Biso   1.000  H
  C14      1.0000 0.96950  0.78060  0.81000  Biso   1.000  C
  H11      1.0000 0.01750  0.82330  0.83540  Biso   1.000  H
  C15      1.0000 0.68460  0.67740  0.77070  Biso   1.000  C
  H12      1.0000 0.67090  0.63460  0.73110  Biso   1.000  H
  C16      1.0000 0.67710  0.76500  0.85690  Biso   1.000  C
  H13      1.0000 0.65680  0.79310  0.88730  Biso   1.000  H
  C17      1.0000 0.75640  0.77780  0.86230  Biso   1.000  C
  H14      1.0000 0.79980  0.81720  0.89650  Biso   1.000  H
  Cu1      1.0000 0.50813  0.67511  0.75536  Biso   1.000  Cu
  N1       1.0000 0.38410  0.65740  0.71043  Biso   1.000  N
  N2       1.0000 0.25100  0.66930  0.69187  Biso   1.000  N
  C18      1.0000 0.96590  0.71610  0.75390  Biso   1.000  C
  N3       1.0000 0.76080  0.72270  0.80851  Biso   1.000  N
  N4       1.0000 0.63170  0.70330  0.79869  Biso   1.000  N
  N5       1.0000 0.50300  0.42380  0.73594  Biso   1.000  N
  O1       1.0000 0.52510  0.51990  0.72052  Biso   1.000  O
  O2       1.0000 0.51027  0.32920  0.71042  Biso   1.000  O
  C19      1.0000 0.66480  0.10240  0.85050  Biso   1.000  C
  H15      1.0000 0.64430  0.06710  0.87910  Biso   1.000  H
  C20      1.0000 0.74570  0.10770  0.86180  Biso   1.000  C
  H16      1.0000 0.79070  0.07630  0.89840  Biso   1.000  H
  C21      1.0000 0.66940  0.20000  0.76540  Biso   1.000  C
  H17      1.0000 0.65450  0.24350  0.72600  Biso   1.000  H
  C22      1.0000 0.82190  0.18880  0.79490  Biso   1.000  C
  C23      1.0000 0.89170  0.11850  0.82900  Biso   1.000  C
  H18      1.0000 0.89250  0.06500  0.86150  Biso   1.000  H
  C24      1.0000 0.96060  0.13090  0.81290  Biso   1.000  C
  H19      1.0000 0.00790  0.08520  0.83540  Biso   1.000  H
  C25      1.0000 0.96000  0.20960  0.76420  Biso   1.000  C
  C26      1.0000 0.89020  0.28130  0.73280  Biso   1.000  C
  H20      1.0000 0.88970  0.33610  0.70100  Biso   1.000  H
  C27      1.0000 0.82110  0.27180  0.74850  Biso   1.000  C
  H21      1.0000 0.77500  0.32080  0.72800  Biso   1.000  H
  C28      1.0000 0.10560  0.15160  0.78200  Biso   1.000  C
  H22      1.0000 0.10870  0.10730  0.81890  Biso   1.000  H
  C29      1.0000 0.17360  0.15180  0.76370  Biso   1.000  C
  H23      1.0000 0.22120  0.10760  0.78800  Biso   1.000  H
  C30      1.0000 0.16880  0.21770  0.70970  Biso   1.000  C
  C31      1.0000 0.09760  0.28140  0.67220  Biso   1.000  C
  H24      1.0000 0.09470  0.32460  0.63500  Biso   1.000  H
  C32      1.0000 0.03050  0.28060  0.69000  Biso   1.000  C
  H25      1.0000 0.98250  0.32330  0.66460  Biso   1.000  H
  C33      1.0000 0.31540  0.17740  0.72930  Biso   1.000  C
  H26      1.0000 0.32910  0.13460  0.76890  Biso   1.000  H
  C34      1.0000 0.32290  0.26500  0.64310  Biso   1.000  C
  H27      1.0000 0.34320  0.29310  0.61270  Biso   1.000  H
  C35      1.0000 0.24360  0.27780  0.63770  Biso   1.000  C
  H28      1.0000 0.20020  0.31720  0.60350  Biso   1.000  H
  Cu2      1.0000 0.49187  0.17511  0.74464  Biso   1.000  Cu
  N6       1.0000 0.61590  0.15740  0.78957  Biso   1.000  N
  N7       1.0000 0.74900  0.16930  0.80813  Biso   1.000  N
  C36      1.0000 0.03410  0.21610  0.74610  Biso   1.000  C
  N8       1.0000 0.23920  0.22270  0.69149  Biso   1.000  N
  N9       1.0000 0.36830  0.20330  0.70131  Biso   1.000  N
  N10      1.0000 0.49700  0.92380  0.76406  Biso   1.000  N
  O3       1.0000 0.47490  0.01990  0.77948  Biso   1.000  O
  O4       1.0000 0.48973  0.82920  0.78958  Biso   1.000  O
  C37      1.0000 0.66480  0.39760  0.35050  Biso   1.000  C
  H29      1.0000 0.64430  0.43290  0.37910  Biso   1.000  H
  C38      1.0000 0.74570  0.39230  0.36180  Biso   1.000  C
  H30      1.0000 0.79070  0.42370  0.39840  Biso   1.000  H
  C39      1.0000 0.66940  0.30000  0.26540  Biso   1.000  C
  H31      1.0000 0.65450  0.25650  0.22600  Biso   1.000  H
  C40      1.0000 0.82190  0.31120  0.29490  Biso   1.000  C
  C41      1.0000 0.89170  0.38150  0.32900  Biso   1.000  C
  H32      1.0000 0.89250  0.43500  0.36150  Biso   1.000  H
  C42      1.0000 0.96060  0.36910  0.31290  Biso   1.000  C
  H33      1.0000 0.00790  0.41480  0.33540  Biso   1.000  H
  C43      1.0000 0.96000  0.29040  0.26420  Biso   1.000  C
  C44      1.0000 0.89020  0.21870  0.23280  Biso   1.000  C
  H34      1.0000 0.88970  0.16390  0.20100  Biso   1.000  H
  C45      1.0000 0.82110  0.22820  0.24850  Biso   1.000  C
  H35      1.0000 0.77500  0.17920  0.22800  Biso   1.000  H
  C46      1.0000 0.10560  0.34840  0.28200  Biso   1.000  C
  H36      1.0000 0.10870  0.39270  0.31890  Biso   1.000  H
  C47      1.0000 0.17360  0.34820  0.26370  Biso   1.000  C
  H37      1.0000 0.22120  0.39240  0.28800  Biso   1.000  H
  C48      1.0000 0.16880  0.28230  0.20970  Biso   1.000  C
  C49      1.0000 0.09760  0.21860  0.17220  Biso   1.000  C
  H38      1.0000 0.09470  0.17540  0.13500  Biso   1.000  H
  C50      1.0000 0.03050  0.21940  0.19000  Biso   1.000  C
  H39      1.0000 0.98250  0.17670  0.16460  Biso   1.000  H
  C51      1.0000 0.31540  0.32260  0.22930  Biso   1.000  C
  H40      1.0000 0.32910  0.36540  0.26890  Biso   1.000  H
  C52      1.0000 0.32290  0.23500  0.14310  Biso   1.000  C
  H41      1.0000 0.34320  0.20690  0.11270  Biso   1.000  H
  C53      1.0000 0.24360  0.22220  0.13770  Biso   1.000  C
  H42      1.0000 0.20020  0.18280  0.10350  Biso   1.000  H
  Cu3      1.0000 0.49187  0.32489  0.24464  Biso   1.000  Cu
  N11      1.0000 0.61590  0.34260  0.28957  Biso   1.000  N
  N12      1.0000 0.74900  0.33070  0.30813  Biso   1.000  N
  C54      1.0000 0.03410  0.28390  0.24610  Biso   1.000  C
  N13      1.0000 0.23920  0.27730  0.19149  Biso   1.000  N
  N14      1.0000 0.36830  0.29670  0.20131  Biso   1.000  N
  N15      1.0000 0.49700  0.57620  0.26406  Biso   1.000  N
  O5       1.0000 0.47490  0.48010  0.27948  Biso   1.000  O
  O6       1.0000 0.48973  0.67080  0.28958  Biso   1.000  O
  C55      1.0000 0.33520  0.89760  0.14950  Biso   1.000  C
  H43      1.0000 0.35570  0.93290  0.12090  Biso   1.000  H
  C56      1.0000 0.25430  0.89230  0.13820  Biso   1.000  C
  H44      1.0000 0.20930  0.92370  0.10160  Biso   1.000  H
  C57      1.0000 0.33060  0.80000  0.23460  Biso   1.000  C
  H45      1.0000 0.34550  0.75650  0.27400  Biso   1.000  H
  C58      1.0000 0.17810  0.81120  0.20510  Biso   1.000  C
  C59      1.0000 0.10830  0.88150  0.17100  Biso   1.000  C
  H46      1.0000 0.10750  0.93500  0.13850  Biso   1.000  H
  C60      1.0000 0.03940  0.86910  0.18710  Biso   1.000  C
  H47      1.0000 0.99210  0.91480  0.16460  Biso   1.000  H
  C61      1.0000 0.04000  0.79040  0.23580  Biso   1.000  C
  C62      1.0000 0.10980  0.71870  0.26720  Biso   1.000  C
  H48      1.0000 0.11030  0.66390  0.29900  Biso   1.000  H
  C63      1.0000 0.17890  0.72820  0.25150  Biso   1.000  C
  H49      1.0000 0.22500  0.67920  0.27200  Biso   1.000  H
  C64      1.0000 0.89440  0.84840  0.21800  Biso   1.000  C
  H50      1.0000 0.89130  0.89270  0.18110  Biso   1.000  H
  C65      1.0000 0.82640  0.84820  0.23630  Biso   1.000  C
  H51      1.0000 0.77880  0.89240  0.21200  Biso   1.000  H
  C66      1.0000 0.83120  0.78230  0.29030  Biso   1.000  C
  C67      1.0000 0.90240  0.71860  0.32780  Biso   1.000  C
  H52      1.0000 0.90530  0.67540  0.36500  Biso   1.000  H
  C68      1.0000 0.96950  0.71940  0.31000  Biso   1.000  C
  H53      1.0000 0.01750  0.67670  0.33540  Biso   1.000  H
  C69      1.0000 0.68460  0.82260  0.27070  Biso   1.000  C
  H54      1.0000 0.67090  0.86540  0.23110  Biso   1.000  H
  C70      1.0000 0.67710  0.73500  0.35690  Biso   1.000  C
  H55      1.0000 0.65680  0.70690  0.38730  Biso   1.000  H
  C71      1.0000 0.75640  0.72220  0.36230  Biso   1.000  C
  H56      1.0000 0.79980  0.68280  0.39650  Biso   1.000  H
  Cu4      1.0000 0.50813  0.82489  0.25536  Biso   1.000  Cu
  N16      1.0000 0.38410  0.84260  0.21043  Biso   1.000  N
  N17      1.0000 0.25100  0.83070  0.19187  Biso   1.000  N
  C72      1.0000 0.96590  0.78390  0.25390  Biso   1.000  C
  N18      1.0000 0.76080  0.77730  0.30851  Biso   1.000  N
  N19      1.0000 0.63170  0.79670  0.29869  Biso   1.000  N
  N20      1.0000 0.50300  0.07620  0.23594  Biso   1.000  N
  O7       1.0000 0.52510  0.98010  0.22052  Biso   1.000  O
  O8       1.0000 0.51027  0.17080  0.21042  Biso   1.000  O
