data_image0
_cell_length_a       10.0425
_cell_length_b       10.7819
_cell_length_c       15.1215
_cell_angle_alpha    74.98
_cell_angle_beta     77.163
_cell_angle_gamma    64.873

_symmetry_space_group_name_H-M    "P 1"
_symmetry_int_tables_number       1

loop_
  _symmetry_equiv_pos_as_xyz
  'x, y, z'

loop_
  _atom_site_label
  _atom_site_occupancy
  _atom_site_fract_x
  _atom_site_fract_y
  _atom_site_fract_z
  _atom_site_thermal_displace_type
  _atom_site_B_iso_or_equiv
  _atom_site_type_symbol
  Cd1      1.0000 0.99172  0.20663  0.99366  Biso   1.000  Cd
  Cd2      1.0000 0.97968  0.56498  0.04482  Biso   1.000  Cd
  N1       1.0000 0.97480  0.12120  0.15220  Biso   1.000  N
  N2       1.0000 0.95900  0.48020  0.19710  Biso   1.000  N
  C1       1.0000 0.07280  0.42000  0.24080  Biso   1.000  C
  H1       1.0000 0.16580  0.39700  0.20580  Biso   1.000  H
  C2       1.0000 0.84280  0.16210  0.20810  Biso   1.000  C
  H2       1.0000 0.75530  0.20730  0.18130  Biso   1.000  H
  C3       1.0000 0.09860  0.05950  0.19130  Biso   1.000  C
  H3       1.0000 0.19020  0.03170  0.15500  Biso   1.000  H
  C4       1.0000 0.83490  0.13900  0.30200  Biso   1.000  C
  H4       1.0000 0.74210  0.16550  0.33710  Biso   1.000  H
  C5       1.0000 0.80930  0.48170  0.34430  Biso   1.000  C
  H5       1.0000 0.71530  0.50730  0.37810  Biso   1.000  H
  C6       1.0000 0.06850  0.38620  0.33670  Biso   1.000  C
  H6       1.0000 0.15570  0.34350  0.36370  Biso   1.000  H
  C7       1.0000 0.50060  0.59590  0.94710  Biso   1.000  C
  H7       1.0000 0.56120  0.63210  0.89700  Biso   1.000  H
  H8       1.0000 0.49380  0.51790  0.93040  Biso   1.000  H
  C8       1.0000 0.09080  0.03570  0.28930  Biso   1.000  C
  H9       1.0000 0.17770  0.98980  0.31650  Biso   1.000  H
  N3       1.0000 0.99960  0.28170  0.83420  Biso   1.000  N
  C9       1.0000 0.82440  0.50780  0.24930  Biso   1.000  C
  H10      1.0000 0.73980  0.54550  0.21990  Biso   1.000  H
  C10      1.0000 0.12710  0.25890  0.78140  Biso   1.000  C
  H11      1.0000 0.21360  0.22300  0.80860  Biso   1.000  H
  N4       1.0000 0.00220  0.60870  0.88900  Biso   1.000  N
  C11      1.0000 0.95480  0.08030  0.34460  Biso   1.000  C
  N5       1.0000 0.35510  0.83320  0.97810  Biso   1.000  N
  H12      1.0000 0.43920  0.83480  0.98050  Biso   1.000  H
  H13      1.0000 0.27460  0.90470  0.98660  Biso   1.000  H
  O1       1.0000 0.84160  0.43040  0.02700  Biso   1.000  O
  C12      1.0000 0.95400  0.06040  0.44390  Biso   1.000  C
  H14      1.0000 0.85860  0.09320  0.47520  Biso   1.000  H
  O2       1.0000 0.21860  0.56010  0.03090  Biso   1.000  O
  C13      1.0000 0.24500  0.66140  0.03970  Biso   1.000  C
  C14      1.0000 0.34910  0.70690  0.95950  Biso   1.000  C
  H15      1.0000 0.30490  0.73300  0.90240  Biso   1.000  H
  O3       1.0000 0.71990  0.31260  0.00940  Biso   1.000  O
  C15      1.0000 0.93490  0.41680  0.38970  Biso   1.000  C
  C16      1.0000 0.02990  0.35280  0.54160  Biso   1.000  C
  H16      1.0000 0.12400  0.33950  0.50970  Biso   1.000  H
  C17      1.0000 0.91900  0.38890  0.49280  Biso   1.000  C
  H17      1.0000 0.82610  0.39720  0.52500  Biso   1.000  H
  C18      1.0000 0.04770  0.01170  0.49450  Biso   1.000  C
  H18      1.0000 0.14580  0.97760  0.46750  Biso   1.000  H
  N6       1.0000 0.01030  0.98050  0.78700  Biso   1.000  N
  C19      1.0000 0.02080  0.00050  0.59820  Biso   1.000  C
  C20      1.0000 0.15410  0.95710  0.63630  Biso   1.000  C
  H19      1.0000 0.24660  0.93760  0.60090  Biso   1.000  H
  C21      1.0000 0.13340  0.94650  0.73070  Biso   1.000  C
  H20      1.0000 0.21970  0.90970  0.75820  Biso   1.000  H
  C22      1.0000 0.88970  0.03250  0.65530  Biso   1.000  C
  H21      1.0000 0.79920  0.06340  0.63350  Biso   1.000  H
  C23      1.0000 0.89990  0.01630  0.74710  Biso   1.000  C
  H22      1.0000 0.81020  0.03500  0.78560  Biso   1.000  H
  C24      1.0000 0.87500  0.33470  0.79270  Biso   1.000  C
  H23      1.0000 0.78390  0.35300  0.82980  Biso   1.000  H
  C25      1.0000 0.87690  0.36250  0.69920  Biso   1.000  C
  H24      1.0000 0.78840  0.40080  0.67380  Biso   1.000  H
  C26      1.0000 0.01170  0.33320  0.64180  Biso   1.000  C
  C27      1.0000 0.13610  0.28740  0.68440  Biso   1.000  C
  H25      1.0000 0.22750  0.27520  0.64870  Biso   1.000  H
  C28      1.0000 0.72220  0.42240  0.02330  Biso   1.000  C
  C29      1.0000 0.57520  0.54460  0.03580  Biso   1.000  C
  H26      1.0000 0.59170  0.61980  0.04930  Biso   1.000  H
  H27      1.0000 0.51080  0.51620  0.08740  Biso   1.000  H
  O4       1.0000 0.19900  0.72140  0.10550  Biso   1.000  O
  C30      1.0000 0.88840  0.68670  0.75280  Biso   1.000  C
  H28      1.0000 0.80050  0.72650  0.72680  Biso   1.000  H
  C31      1.0000 0.02360  0.64680  0.69750  Biso   1.000  C
  C32      1.0000 0.88530  0.66740  0.84440  Biso   1.000  C
  H29      1.0000 0.79270  0.69810  0.87940  Biso   1.000  H
  C33      1.0000 0.15100  0.58510  0.74470  Biso   1.000  C
  H30      1.0000 0.24550  0.55460  0.71200  Biso   1.000  H
  C34      1.0000 0.13340  0.57120  0.83760  Biso   1.000  C
  H31      1.0000 0.21790  0.53330  0.86700  Biso   1.000  H
  C35      1.0000 0.93650  0.71330  0.54540  Biso   1.000  C
  H32      1.0000 0.84060  0.73510  0.57620  Biso   1.000  H
  C36      1.0000 0.95220  0.73150  0.44590  Biso   1.000  C
  C37      1.0000 0.09280  0.68670  0.39590  Biso   1.000  C
  H33      1.0000 0.17550  0.64510  0.42730  Biso   1.000  H
  N7       1.0000 0.99050  0.75740  0.25770  Biso   1.000  N
  C38      1.0000 0.04310  0.66960  0.59690  Biso   1.000  C
  H34      1.0000 0.13900  0.65150  0.56680  Biso   1.000  H
  C39      1.0000 0.84010  0.77930  0.39690  Biso   1.000  C
  H35      1.0000 0.74490  0.80620  0.42910  Biso   1.000  H
  C40      1.0000 0.11370  0.70280  0.29810  Biso   1.000  C
  H36      1.0000 0.20760  0.67690  0.26430  Biso   1.000  H
  C41      1.0000 0.85190  0.79240  0.30400  Biso   1.000  C
  H37      1.0000 0.76900  0.82370  0.27380  Biso   1.000  H
