data_image0
_cell_length_a       8.3519
_cell_length_b       10.8757
_cell_length_c       18.006
_cell_angle_alpha    106.753
_cell_angle_beta     91.98
_cell_angle_gamma    94.345

_symmetry_space_group_name_H-M    "P 1"
_symmetry_int_tables_number       1

loop_
  _symmetry_equiv_pos_as_xyz
  'x, y, z'

loop_
  _atom_site_label
  _atom_site_occupancy
  _atom_site_fract_x
  _atom_site_fract_y
  _atom_site_fract_z
  _atom_site_thermal_displace_type
  _atom_site_B_iso_or_equiv
  _atom_site_type_symbol
  Cd1      1.0000 0.49953  0.00126  0.24389  Biso   1.000  Cd
  C1       1.0000 0.61030  0.79240  0.08370  Biso   1.000  C
  H1       1.0000 0.58230  0.72220  0.10180  Biso   1.000  H
  C2       1.0000 0.68380  0.78650  0.01660  Biso   1.000  C
  H2       1.0000 0.71560  0.71320  0.98110  Biso   1.000  H
  C3       1.0000 0.64170  0.98250  0.07630  Biso   1.000  C
  H3       1.0000 0.64160  0.07160  0.08810  Biso   1.000  H
  C4       1.0000 0.78260  0.95340  0.95290  Biso   1.000  C
  H4       1.0000 0.74650  0.03610  0.95290  Biso   1.000  H
  H5       1.0000 0.75250  0.89290  0.90220  Biso   1.000  H
  C5       1.0000 0.95970  0.96690  0.96530  Biso   1.000  C
  H6       1.0000 0.99310  0.88010  0.95200  Biso   1.000  H
  H7       1.0000 0.00140  0.00540  0.92680  Biso   1.000  H
  C6       1.0000 0.50250  0.09520  0.43430  Biso   1.000  C
  H8       1.0000 0.56640  0.03040  0.43770  Biso   1.000  H
  C7       1.0000 0.46430  0.19200  0.49560  Biso   1.000  C
  H9       1.0000 0.49670  0.20640  0.54760  Biso   1.000  H
  C8       1.0000 0.35420  0.20920  0.38790  Biso   1.000  C
  H10      1.0000 0.29530  0.24000  0.35340  Biso   1.000  H
  C9       1.0000 0.31390  0.38750  0.50650  Biso   1.000  C
  H11      1.0000 0.25850  0.37900  0.55150  Biso   1.000  H
  H12      1.0000 0.23800  0.41290  0.47290  Biso   1.000  H
  C10      1.0000 0.45240  0.49100  0.53280  Biso   1.000  C
  H13      1.0000 0.41050  0.57200  0.55920  Biso   1.000  H
  H14      1.0000 0.52320  0.46870  0.56980  Biso   1.000  H
  C11      1.0000 0.69710  0.78240  0.29880  Biso   1.000  C
  H15      1.0000 0.61290  0.71840  0.28050  Biso   1.000  H
  C12      1.0000 0.83660  0.76740  0.33480  Biso   1.000  C
  H16      1.0000 0.86520  0.69320  0.34580  Biso   1.000  H
  C13      1.0000 0.84160  0.96100  0.32540  Biso   1.000  C
  H17      1.0000 0.87750  0.04570  0.32890  Biso   1.000  H
  C14      1.0000 0.07800  0.91800  0.39860  Biso   1.000  C
  H18      1.0000 0.14300  0.84540  0.38600  Biso   1.000  H
  H19      1.0000 0.13640  0.98900  0.38570  Biso   1.000  H
  C15      1.0000 0.05370  0.95570  0.48140  Biso   1.000  C
  H20      1.0000 0.02380  0.87650  0.49400  Biso   1.000  H
  H21      1.0000 0.15870  0.98820  0.50720  Biso   1.000  H
  N1       1.0000 0.58420  0.91580  0.12010  Biso   1.000  N
  N2       1.0000 0.70110  0.90870  0.01210  Biso   1.000  N
  N3       1.0000 0.43430  0.10610  0.36720  Biso   1.000  N
  N4       1.0000 0.36810  0.26460  0.46540  Biso   1.000  N
  N5       1.0000 0.69870  0.90400  0.29330  Biso   1.000  N
  N6       1.0000 0.92610  0.88260  0.35160  Biso   1.000  N
  Cd2      1.0000 0.50047  0.99874  0.75611  Biso   1.000  Cd
  C16      1.0000 0.38970  0.20760  0.91630  Biso   1.000  C
  H22      1.0000 0.41770  0.27780  0.89820  Biso   1.000  H
  C17      1.0000 0.31620  0.21350  0.98340  Biso   1.000  C
  H23      1.0000 0.28440  0.28680  0.01890  Biso   1.000  H
  C18      1.0000 0.35830  0.01750  0.92370  Biso   1.000  C
  H24      1.0000 0.35840  0.92840  0.91190  Biso   1.000  H
  C19      1.0000 0.21740  0.04660  0.04710  Biso   1.000  C
  H25      1.0000 0.25350  0.96390  0.04710  Biso   1.000  H
  H26      1.0000 0.24750  0.10710  0.09780  Biso   1.000  H
  C20      1.0000 0.04030  0.03310  0.03470  Biso   1.000  C
  H27      1.0000 0.00690  0.11990  0.04800  Biso   1.000  H
  H28      1.0000 0.99860  0.99460  0.07320  Biso   1.000  H
  C21      1.0000 0.49750  0.90480  0.56570  Biso   1.000  C
  H29      1.0000 0.43360  0.96960  0.56230  Biso   1.000  H
  C22      1.0000 0.53570  0.80800  0.50440  Biso   1.000  C
  H30      1.0000 0.50330  0.79360  0.45240  Biso   1.000  H
  C23      1.0000 0.64580  0.79080  0.61210  Biso   1.000  C
  H31      1.0000 0.70470  0.76000  0.64660  Biso   1.000  H
  C24      1.0000 0.68610  0.61250  0.49350  Biso   1.000  C
  H32      1.0000 0.74150  0.62100  0.44850  Biso   1.000  H
  H33      1.0000 0.76200  0.58710  0.52710  Biso   1.000  H
  C25      1.0000 0.54760  0.50900  0.46720  Biso   1.000  C
  H34      1.0000 0.58950  0.42800  0.44080  Biso   1.000  H
  H35      1.0000 0.47680  0.53130  0.43020  Biso   1.000  H
  C26      1.0000 0.30290  0.21760  0.70120  Biso   1.000  C
  H36      1.0000 0.38710  0.28160  0.71950  Biso   1.000  H
  C27      1.0000 0.16340  0.23260  0.66520  Biso   1.000  C
  H37      1.0000 0.13480  0.30680  0.65420  Biso   1.000  H
  C28      1.0000 0.15840  0.03900  0.67460  Biso   1.000  C
  H38      1.0000 0.12250  0.95430  0.67110  Biso   1.000  H
  C29      1.0000 0.92200  0.08200  0.60140  Biso   1.000  C
  H39      1.0000 0.85700  0.15460  0.61400  Biso   1.000  H
  H40      1.0000 0.86360  0.01100  0.61430  Biso   1.000  H
  C30      1.0000 0.94630  0.04430  0.51860  Biso   1.000  C
  H41      1.0000 0.97620  0.12350  0.50600  Biso   1.000  H
  H42      1.0000 0.84130  0.01180  0.49280  Biso   1.000  H
  N7       1.0000 0.41580  0.08420  0.87990  Biso   1.000  N
  N8       1.0000 0.29890  0.09130  0.98790  Biso   1.000  N
  N9       1.0000 0.56570  0.89390  0.63280  Biso   1.000  N
  N10      1.0000 0.63190  0.73540  0.53460  Biso   1.000  N
  N11      1.0000 0.30130  0.09600  0.70670  Biso   1.000  N
  N12      1.0000 0.07390  0.11740  0.64840  Biso   1.000  N
