data_image0
_cell_length_a       16.0808
_cell_length_b       16.7417
_cell_length_c       20.397
_cell_angle_alpha    76.951
_cell_angle_beta     74.858
_cell_angle_gamma    78.372

_symmetry_space_group_name_H-M    "P 1"
_symmetry_int_tables_number       1

loop_
  _symmetry_equiv_pos_as_xyz
  'x, y, z'

loop_
  _atom_site_label
  _atom_site_occupancy
  _atom_site_fract_x
  _atom_site_fract_y
  _atom_site_fract_z
  _atom_site_thermal_displace_type
  _atom_site_B_iso_or_equiv
  _atom_site_type_symbol
  C1       1.0000 0.16040  0.06000  0.28130  Biso   1.000  C
  C2       1.0000 0.23990  0.02060  0.30460  Biso   1.000  C
  H1       1.0000 0.28530  0.04640  0.30600  Biso   1.000  H
  C3       1.0000 0.23380  0.93790  0.32390  Biso   1.000  C
  H2       1.0000 0.27290  0.89700  0.34390  Biso   1.000  H
  C4       1.0000 0.15420  0.92540  0.30760  Biso   1.000  C
  C5       1.0000 0.12400  0.84990  0.31790  Biso   1.000  C
  C6       1.0000 0.05390  0.83180  0.29830  Biso   1.000  C
  C7       1.0000 0.02610  0.75400  0.30570  Biso   1.000  C
  H3       1.0000 0.05240  0.70220  0.32460  Biso   1.000  H
  C8       1.0000 0.95280  0.77050  0.27960  Biso   1.000  C
  H4       1.0000 0.92220  0.73100  0.27540  Biso   1.000  H
  C9       1.0000 0.93120  0.85870  0.25960  Biso   1.000  C
  C10      1.0000 0.85840  0.90050  0.23010  Biso   1.000  C
  C11      1.0000 0.83940  0.98610  0.20910  Biso   1.000  C
  C12      1.0000 0.76100  0.02380  0.18730  Biso   1.000  C
  H5       1.0000 0.71570  0.99740  0.18650  Biso   1.000  H
  C13      1.0000 0.76570  0.10480  0.16820  Biso   1.000  C
  H6       1.0000 0.72450  0.14440  0.14940  Biso   1.000  H
  C14      1.0000 0.84510  0.12240  0.18120  Biso   1.000  C
  C15      1.0000 0.87550  0.19750  0.17030  Biso   1.000  C
  C16      1.0000 0.95220  0.20870  0.18920  Biso   1.000  C
  C17      1.0000 0.98410  0.28860  0.17600  Biso   1.000  C
  H7       1.0000 0.95790  0.33910  0.15490  Biso   1.000  H
  C18      1.0000 0.05500  0.27690  0.19870  Biso   1.000  C
  H8       1.0000 0.08790  0.31700  0.19800  Biso   1.000  H
  C19      1.0000 0.07210  0.18910  0.22530  Biso   1.000  C
  C20      1.0000 0.14250  0.14600  0.25410  Biso   1.000  C
  C21      1.0000 0.20560  0.19700  0.26110  Biso   1.000  C
  C22      1.0000 0.26410  0.22430  0.20300  Biso   1.000  C
  H9       1.0000 0.26220  0.21430  0.16050  Biso   1.000  H
  C23      1.0000 0.33030  0.26980  0.20830  Biso   1.000  C
  H10      1.0000 0.36970  0.29040  0.16890  Biso   1.000  H
  C24      1.0000 0.33370  0.28200  0.27270  Biso   1.000  C
  C25      1.0000 0.27200  0.25710  0.32880  Biso   1.000  C
  H11      1.0000 0.27240  0.26690  0.37180  Biso   1.000  H
  C26      1.0000 0.20770  0.21670  0.32210  Biso   1.000  C
  H12      1.0000 0.16430  0.20250  0.36090  Biso   1.000  H
  C27      1.0000 0.43940  0.38170  0.23720  Biso   1.000  C
  H13      1.0000 0.42580  0.40890  0.19540  Biso   1.000  H
  C28      1.0000 0.49870  0.39790  0.26740  Biso   1.000  C
  H14      1.0000 0.53260  0.44010  0.24950  Biso   1.000  H
  C29      1.0000 0.44250  0.29670  0.33170  Biso   1.000  C
  H15      1.0000 0.42940  0.25260  0.36770  Biso   1.000  H
  C30      1.0000 0.18020  0.77380  0.35100  Biso   1.000  C
  C31      1.0000 0.18550  0.76110  0.41970  Biso   1.000  C
  H16      1.0000 0.15360  0.79890  0.44750  Biso   1.000  H
  C32      1.0000 0.23840  0.69180  0.44670  Biso   1.000  C
  H17      1.0000 0.24190  0.68320  0.49260  Biso   1.000  H
  C33      1.0000 0.28600  0.63530  0.40510  Biso   1.000  C
  C34      1.0000 0.28080  0.64800  0.33650  Biso   1.000  C
  H18      1.0000 0.31260  0.61020  0.30870  Biso   1.000  H
  C35      1.0000 0.22790  0.71730  0.30940  Biso   1.000  C
  H19      1.0000 0.22430  0.72590  0.26350  Biso   1.000  H
  C36      1.0000 0.32440  0.52690  0.50470  Biso   1.000  C
  H20      1.0000 0.27930  0.54210  0.54090  Biso   1.000  H
  C37      1.0000 0.39110  0.46430  0.50690  Biso   1.000  C
  H21      1.0000 0.39790  0.42760  0.54750  Biso   1.000  H
  C38      1.0000 0.41190  0.51860  0.40530  Biso   1.000  C
  H22      1.0000 0.43520  0.53020  0.35800  Biso   1.000  H
  C39      1.0000 0.79640  0.84470  0.22770  Biso   1.000  C
  C40      1.0000 0.74350  0.80700  0.28640  Biso   1.000  C
  H23      1.0000 0.74820  0.81080  0.33000  Biso   1.000  H
  C41      1.0000 0.68150  0.76210  0.27870  Biso   1.000  C
  H24      1.0000 0.64700  0.73360  0.31740  Biso   1.000  H
  C42      1.0000 0.67330  0.76120  0.21410  Biso   1.000  C
  C43      1.0000 0.72910  0.79380  0.15510  Biso   1.000  C
  H25      1.0000 0.72660  0.78620  0.11190  Biso   1.000  H
  C44      1.0000 0.78860  0.83770  0.16200  Biso   1.000  C
  H26      1.0000 0.82440  0.86350  0.12260  Biso   1.000  H
  C45      1.0000 0.57280  0.65220  0.24640  Biso   1.000  C
  H27      1.0000 0.59140  0.62000  0.28500  Biso   1.000  H
  N1       1.0000 0.50420  0.69690  0.16240  Biso   1.000  N
  C46      1.0000 0.56090  0.74590  0.15480  Biso   1.000  C
  H28      1.0000 0.56900  0.79220  0.12000  Biso   1.000  H
  C47      1.0000 0.81960  0.27000  0.13820  Biso   1.000  C
  C48      1.0000 0.77810  0.33350  0.17550  Biso   1.000  C
  H29      1.0000 0.78760  0.32990  0.21920  Biso   1.000  H
  C49      1.0000 0.72200  0.40320  0.14850  Biso   1.000  C
  H30      1.0000 0.69430  0.44460  0.17400  Biso   1.000  H
  C50      1.0000 0.71040  0.40710  0.08370  Biso   1.000  C
  C51      1.0000 0.74960  0.34430  0.04600  Biso   1.000  C
  H31      1.0000 0.73800  0.34750  0.00310  Biso   1.000  H
  C52      1.0000 0.80530  0.27730  0.07130  Biso   1.000  C
  H32      1.0000 0.83340  0.23720  0.04460  Biso   1.000  H
  C53      1.0000 0.58780  0.52180  0.08710  Biso   1.000  C
  H33      1.0000 0.57270  0.51430  0.13500  Biso   1.000  H
  C54      1.0000 0.58950  0.56760  0.98230  Biso   1.000  C
  H34      1.0000 0.57350  0.59760  0.94200  Biso   1.000  H
  C55      1.0000 0.65870  0.50270  0.98440  Biso   1.000  C
  H35      1.0000 0.70020  0.48400  0.94770  Biso   1.000  H
  C56      1.0000 0.70700  0.42270  0.34180  Biso   1.000  C
  C57      1.0000 0.79250  0.44970  0.31180  Biso   1.000  C
  C58      1.0000 0.80360  0.52270  0.26410  Biso   1.000  C
  H36      1.0000 0.75600  0.55530  0.24850  Biso   1.000  H
  C59      1.0000 0.88450  0.54700  0.23980  Biso   1.000  C
  H37      1.0000 0.88840  0.59680  0.20870  Biso   1.000  H
  C60      1.0000 0.95560  0.50640  0.25660  Biso   1.000  C
  C61      1.0000 0.94930  0.42750  0.30660  Biso   1.000  C
  H38      1.0000 0.99860  0.39520  0.31960  Biso   1.000  H
  C62      1.0000 0.86730  0.40250  0.33390  Biso   1.000  C
  H39      1.0000 0.86180  0.35440  0.36700  Biso   1.000  H
  C63      1.0000 0.04620  0.53020  0.23140  Biso   1.000  C
  C64      1.0000 0.05740  0.59800  0.18190  Biso   1.000  C
  H40      1.0000 0.01030  0.62730  0.16380  Biso   1.000  H
  C65      1.0000 0.13670  0.62490  0.15750  Biso   1.000  C
  H41      1.0000 0.14270  0.67240  0.12380  Biso   1.000  H
  C66      1.0000 0.20920  0.58090  0.18330  Biso   1.000  C
  C67      1.0000 0.19930  0.51360  0.23100  Biso   1.000  C
  H42      1.0000 0.24700  0.48260  0.24740  Biso   1.000  H
  C68      1.0000 0.11710  0.48890  0.25690  Biso   1.000  C
  H43      1.0000 0.11030  0.44310  0.29250  Biso   1.000  H
  C69      1.0000 0.29450  0.61270  0.15170  Biso   1.000  C
  C70      1.0000 0.53450  0.24660  0.53690  Biso   1.000  C
  C71      1.0000 0.52380  0.17860  0.59740  Biso   1.000  C
  C72      1.0000 0.55250  0.18620  0.65410  Biso   1.000  C
  H44      1.0000 0.57890  0.23150  0.65210  Biso   1.000  H
  C73      1.0000 0.54160  0.12600  0.71370  Biso   1.000  C
  H45      1.0000 0.56080  0.13110  0.75170  Biso   1.000  H
  C74      1.0000 0.50210  0.05830  0.71680  Biso   1.000  C
  C75      1.0000 0.47340  0.05070  0.66010  Biso   1.000  C
  H46      1.0000 0.44700  0.00540  0.66210  Biso   1.000  H
  C76      1.0000 0.48430  0.11080  0.60040  Biso   1.000  C
  H47      1.0000 0.46510  0.10570  0.56250  Biso   1.000  H
  C77      1.0000 0.49180  0.98940  0.77950  Biso   1.000  C
  C78      1.0000 0.49520  0.00570  0.84260  Biso   1.000  C
  H48      1.0000 0.50520  0.05750  0.84530  Biso   1.000  H
  C79      1.0000 0.48350  0.94460  0.90150  Biso   1.000  C
  H49      1.0000 0.48580  0.95550  0.94370  Biso   1.000  H
  C80      1.0000 0.46850  0.86710  0.89750  Biso   1.000  C
  C81      1.0000 0.46510  0.85080  0.83440  Biso   1.000  C
  H50      1.0000 0.45510  0.79900  0.83170  Biso   1.000  H
  C82      1.0000 0.47680  0.91190  0.77550  Biso   1.000  C
  H51      1.0000 0.47450  0.90100  0.73330  Biso   1.000  H
  N2       1.0000 0.11090  0.00310  0.28350  Biso   1.000  N
  N3       1.0000 0.00830  0.14920  0.21530  Biso   1.000  N
  N4       1.0000 0.88870  0.04280  0.20420  Biso   1.000  N
  N5       1.0000 0.99820  0.89410  0.26750  Biso   1.000  N
  N6       1.0000 0.40540  0.31880  0.28040  Biso   1.000  N
  N7       1.0000 0.50120  0.34340  0.32780  Biso   1.000  N
  N8       1.0000 0.33890  0.56300  0.43640  Biso   1.000  N
  N9       1.0000 0.44730  0.45870  0.44610  Biso   1.000  N
  N10      1.0000 0.60580  0.71990  0.20460  Biso   1.000  N
  C83      1.0000 0.50730  0.64150  0.22030  Biso   1.000  C
  H52      1.0000 0.47040  0.60190  0.23960  Biso   1.000  H
  N11      1.0000 0.65090  0.47320  0.05390  Biso   1.000  N
  N12      1.0000 0.54740  0.58150  0.04830  Biso   1.000  N
  O1       1.0000 0.55760  0.31230  0.53430  Biso   1.000  O
  O2       1.0000 0.52340  0.23140  0.47980  Biso   1.000  O
  O3       1.0000 0.63910  0.46600  0.32930  Biso   1.000  O
  O4       1.0000 0.70060  0.35330  0.38190  Biso   1.000  O
  O5       1.0000 0.30050  0.67450  0.10310  Biso   1.000  O
  O6       1.0000 0.35800  0.57450  0.17280  Biso   1.000  O
  Cd1      1.0000 0.55734  0.36056  0.41443  Biso   1.000  Cd
  Cd2      1.0000 0.43964  0.68538  0.07822  Biso   1.000  Cd
  Cd3      1.0000 0.02918  0.01818  0.20665  Biso   1.000  Cd
  Cd4      1.0000 0.97090  0.02772  0.28182  Biso   1.000  Cd
  C84      1.0000 0.83960  0.94000  0.71870  Biso   1.000  C
  C85      1.0000 0.76010  0.97940  0.69540  Biso   1.000  C
  H53      1.0000 0.71470  0.95360  0.69400  Biso   1.000  H
  C86      1.0000 0.76620  0.06210  0.67610  Biso   1.000  C
  H54      1.0000 0.72710  0.10300  0.65610  Biso   1.000  H
  C87      1.0000 0.84580  0.07460  0.69240  Biso   1.000  C
  C88      1.0000 0.87600  0.15010  0.68210  Biso   1.000  C
  C89      1.0000 0.94610  0.16820  0.70170  Biso   1.000  C
  C90      1.0000 0.97390  0.24600  0.69430  Biso   1.000  C
  H55      1.0000 0.94760  0.29780  0.67540  Biso   1.000  H
  C91      1.0000 0.04720  0.22950  0.72040  Biso   1.000  C
  H56      1.0000 0.07780  0.26900  0.72460  Biso   1.000  H
  C92      1.0000 0.06880  0.14130  0.74040  Biso   1.000  C
  C93      1.0000 0.14160  0.09950  0.76990  Biso   1.000  C
  C94      1.0000 0.16060  0.01390  0.79090  Biso   1.000  C
  C95      1.0000 0.23900  0.97620  0.81270  Biso   1.000  C
  H57      1.0000 0.28430  0.00260  0.81350  Biso   1.000  H
  C96      1.0000 0.23430  0.89520  0.83180  Biso   1.000  C
  H58      1.0000 0.27550  0.85560  0.85060  Biso   1.000  H
  C97      1.0000 0.15490  0.87760  0.81880  Biso   1.000  C
  C98      1.0000 0.12450  0.80250  0.82970  Biso   1.000  C
  C99      1.0000 0.04780  0.79130  0.81080  Biso   1.000  C
  C100     1.0000 0.01590  0.71140  0.82400  Biso   1.000  C
  H59      1.0000 0.04210  0.66090  0.84510  Biso   1.000  H
  C101     1.0000 0.94500  0.72310  0.80130  Biso   1.000  C
  H60      1.0000 0.91210  0.68300  0.80200  Biso   1.000  H
  C102     1.0000 0.92790  0.81090  0.77470  Biso   1.000  C
  C103     1.0000 0.85750  0.85400  0.74590  Biso   1.000  C
  C104     1.0000 0.79440  0.80300  0.73890  Biso   1.000  C
  C105     1.0000 0.73590  0.77570  0.79700  Biso   1.000  C
  H61      1.0000 0.73780  0.78570  0.83950  Biso   1.000  H
  C106     1.0000 0.66970  0.73020  0.79170  Biso   1.000  C
  H62      1.0000 0.63030  0.70960  0.83110  Biso   1.000  H
  C107     1.0000 0.66630  0.71800  0.72730  Biso   1.000  C
  C108     1.0000 0.72800  0.74290  0.67120  Biso   1.000  C
  H63      1.0000 0.72760  0.73310  0.62820  Biso   1.000  H
  C109     1.0000 0.79230  0.78330  0.67790  Biso   1.000  C
  H64      1.0000 0.83570  0.79750  0.63910  Biso   1.000  H
  C110     1.0000 0.56060  0.61830  0.76280  Biso   1.000  C
  H65      1.0000 0.57420  0.59110  0.80460  Biso   1.000  H
  C111     1.0000 0.50130  0.60210  0.73260  Biso   1.000  C
  H66      1.0000 0.46740  0.55990  0.75050  Biso   1.000  H
  C112     1.0000 0.55750  0.70330  0.66830  Biso   1.000  C
  H67      1.0000 0.57060  0.74740  0.63230  Biso   1.000  H
  C113     1.0000 0.81980  0.22620  0.64900  Biso   1.000  C
  C114     1.0000 0.81450  0.23890  0.58030  Biso   1.000  C
  H68      1.0000 0.84640  0.20110  0.55250  Biso   1.000  H
  C115     1.0000 0.76160  0.30820  0.55330  Biso   1.000  C
  H69      1.0000 0.75810  0.31680  0.50740  Biso   1.000  H
  C116     1.0000 0.71400  0.36470  0.59490  Biso   1.000  C
  C117     1.0000 0.71920  0.35200  0.66350  Biso   1.000  C
  H70      1.0000 0.68740  0.38980  0.69130  Biso   1.000  H
  C118     1.0000 0.77210  0.28270  0.69060  Biso   1.000  C
  H71      1.0000 0.77570  0.27410  0.73650  Biso   1.000  H
  C119     1.0000 0.67560  0.47310  0.49530  Biso   1.000  C
  H72      1.0000 0.72070  0.45790  0.45910  Biso   1.000  H
  C120     1.0000 0.60890  0.53570  0.49310  Biso   1.000  C
  H73      1.0000 0.60210  0.57240  0.45250  Biso   1.000  H
  C121     1.0000 0.58810  0.48140  0.59470  Biso   1.000  C
  H74      1.0000 0.56480  0.46980  0.64200  Biso   1.000  H
  C122     1.0000 0.20360  0.15530  0.77230  Biso   1.000  C
  C123     1.0000 0.25650  0.19300  0.71360  Biso   1.000  C
  H75      1.0000 0.25180  0.18920  0.67000  Biso   1.000  H
  C124     1.0000 0.31850  0.23790  0.72130  Biso   1.000  C
  H76      1.0000 0.35300  0.26640  0.68260  Biso   1.000  H
  C125     1.0000 0.32670  0.23880  0.78590  Biso   1.000  C
  C126     1.0000 0.27090  0.20620  0.84490  Biso   1.000  C
  H77      1.0000 0.27340  0.21380  0.88810  Biso   1.000  H
  C127     1.0000 0.21140  0.16230  0.83800  Biso   1.000  C
  H78      1.0000 0.17560  0.13650  0.87740  Biso   1.000  H
  C128     1.0000 0.42720  0.34780  0.75360  Biso   1.000  C
  H79      1.0000 0.40860  0.38000  0.71500  Biso   1.000  H
  N13      1.0000 0.49580  0.30310  0.83760  Biso   1.000  N
  C129     1.0000 0.43910  0.25410  0.84520  Biso   1.000  C
  H80      1.0000 0.43100  0.20780  0.88000  Biso   1.000  H
  C130     1.0000 0.18040  0.73000  0.86180  Biso   1.000  C
  C131     1.0000 0.22190  0.66650  0.82450  Biso   1.000  C
  H81      1.0000 0.21240  0.67010  0.78080  Biso   1.000  H
  C132     1.0000 0.27800  0.59680  0.85150  Biso   1.000  C
  H82      1.0000 0.30570  0.55540  0.82600  Biso   1.000  H
  C133     1.0000 0.28960  0.59290  0.91630  Biso   1.000  C
  C134     1.0000 0.25040  0.65570  0.95400  Biso   1.000  C
  H83      1.0000 0.26200  0.65250  0.99690  Biso   1.000  H
  C135     1.0000 0.19470  0.72270  0.92870  Biso   1.000  C
  H84      1.0000 0.16660  0.76280  0.95540  Biso   1.000  H
  C136     1.0000 0.41220  0.47820  0.91290  Biso   1.000  C
  H85      1.0000 0.42730  0.48570  0.86500  Biso   1.000  H
  C137     1.0000 0.41050  0.43240  0.01770  Biso   1.000  C
  H86      1.0000 0.42650  0.40240  0.05800  Biso   1.000  H
  C138     1.0000 0.34130  0.49730  0.01560  Biso   1.000  C
  H87      1.0000 0.29980  0.51600  0.05230  Biso   1.000  H
  C139     1.0000 0.29300  0.57730  0.65820  Biso   1.000  C
  C140     1.0000 0.20750  0.55030  0.68820  Biso   1.000  C
  C141     1.0000 0.19640  0.47730  0.73590  Biso   1.000  C
  H88      1.0000 0.24400  0.44470  0.75150  Biso   1.000  H
  C142     1.0000 0.11550  0.45300  0.76020  Biso   1.000  C
  H89      1.0000 0.11160  0.40320  0.79130  Biso   1.000  H
  C143     1.0000 0.04440  0.49360  0.74340  Biso   1.000  C
  C144     1.0000 0.05070  0.57250  0.69340  Biso   1.000  C
  H90      1.0000 0.00140  0.60480  0.68040  Biso   1.000  H
  C145     1.0000 0.13270  0.59750  0.66610  Biso   1.000  C
  H91      1.0000 0.13820  0.64560  0.63300  Biso   1.000  H
  C146     1.0000 0.95380  0.46980  0.76860  Biso   1.000  C
  C147     1.0000 0.94260  0.40200  0.81810  Biso   1.000  C
  H92      1.0000 0.98970  0.37270  0.83620  Biso   1.000  H
  C148     1.0000 0.86330  0.37510  0.84250  Biso   1.000  C
  H93      1.0000 0.85730  0.32760  0.87620  Biso   1.000  H
  C149     1.0000 0.79080  0.41910  0.81670  Biso   1.000  C
  C150     1.0000 0.80070  0.48640  0.76900  Biso   1.000  C
  H94      1.0000 0.75300  0.51740  0.75260  Biso   1.000  H
  C151     1.0000 0.88290  0.51110  0.74310  Biso   1.000  C
  H95      1.0000 0.88970  0.55690  0.70750  Biso   1.000  H
  C152     1.0000 0.70550  0.38730  0.84830  Biso   1.000  C
  C153     1.0000 0.46550  0.75340  0.46310  Biso   1.000  C
  C154     1.0000 0.47620  0.82140  0.40260  Biso   1.000  C
  C155     1.0000 0.44750  0.81380  0.34590  Biso   1.000  C
  H96      1.0000 0.42110  0.76850  0.34790  Biso   1.000  H
  C156     1.0000 0.45840  0.87400  0.28630  Biso   1.000  C
  H97      1.0000 0.43920  0.86890  0.24830  Biso   1.000  H
  C157     1.0000 0.49790  0.94170  0.28320  Biso   1.000  C
  C158     1.0000 0.52660  0.94930  0.33990  Biso   1.000  C
  H98      1.0000 0.55300  0.99460  0.33790  Biso   1.000  H
  C159     1.0000 0.51570  0.88920  0.39960  Biso   1.000  C
  H99      1.0000 0.53490  0.89430  0.43750  Biso   1.000  H
  C160     1.0000 0.50820  0.01060  0.22050  Biso   1.000  C
  C161     1.0000 0.50480  0.99430  0.15740  Biso   1.000  C
  H100     1.0000 0.49480  0.94250  0.15470  Biso   1.000  H
  C162     1.0000 0.51650  0.05540  0.09850  Biso   1.000  C
  H101     1.0000 0.51420  0.04450  0.05630  Biso   1.000  H
  C163     1.0000 0.53150  0.13290  0.10250  Biso   1.000  C
  C164     1.0000 0.53490  0.14920  0.16560  Biso   1.000  C
  H102     1.0000 0.54490  0.20100  0.16830  Biso   1.000  H
  C165     1.0000 0.52320  0.08810  0.22450  Biso   1.000  C
  H103     1.0000 0.52550  0.09900  0.26670  Biso   1.000  H
  N14      1.0000 0.88910  0.99690  0.71650  Biso   1.000  N
  N15      1.0000 0.99170  0.85080  0.78470  Biso   1.000  N
  N16      1.0000 0.11130  0.95720  0.79580  Biso   1.000  N
  N17      1.0000 0.00180  0.10590  0.73250  Biso   1.000  N
  N18      1.0000 0.59460  0.68120  0.71960  Biso   1.000  N
  N19      1.0000 0.49880  0.65660  0.67220  Biso   1.000  N
  N20      1.0000 0.66110  0.43700  0.56360  Biso   1.000  N
  N21      1.0000 0.55270  0.54130  0.55390  Biso   1.000  N
  N22      1.0000 0.39420  0.28010  0.79540  Biso   1.000  N
  C166     1.0000 0.49270  0.35850  0.77970  Biso   1.000  C
  H104     1.0000 0.52960  0.39810  0.76040  Biso   1.000  H
  N23      1.0000 0.34910  0.52680  0.94610  Biso   1.000  N
  N24      1.0000 0.45260  0.41850  0.95170  Biso   1.000  N
  O7       1.0000 0.44240  0.68770  0.46570  Biso   1.000  O
  O8       1.0000 0.47660  0.76860  0.52020  Biso   1.000  O
  O9       1.0000 0.36090  0.53400  0.67070  Biso   1.000  O
  O10      1.0000 0.29940  0.64670  0.61810  Biso   1.000  O
  O11      1.0000 0.69950  0.32550  0.89690  Biso   1.000  O
  O12      1.0000 0.64200  0.42550  0.82720  Biso   1.000  O
  Cd5      1.0000 0.44266  0.63944  0.58557  Biso   1.000  Cd
  Cd6      1.0000 0.56036  0.31462  0.92178  Biso   1.000  Cd
  Cd7      1.0000 0.97082  0.98182  0.79335  Biso   1.000  Cd
  Cd8      1.0000 0.02910  0.97228  0.71818  Biso   1.000  Cd
