data_KITWIV_clean
_audit_creation_date              2015-10-16
_audit_creation_method            'Materials Studio'
_symmetry_space_group_name_H-M    'P1'
_symmetry_Int_Tables_number       1
_symmetry_cell_setting            triclinic
loop_
_symmetry_equiv_pos_as_xyz
  x,y,z
_cell_length_a                    12.0520
_cell_length_b                    17.8509
_cell_length_c                    18.6200
_cell_angle_alpha                 90.0000
_cell_angle_beta                  90.0000
_cell_angle_gamma                 100.6860
loop_
_atom_site_label
_atom_site_type_symbol
_atom_site_fract_x
_atom_site_fract_y
_atom_site_fract_z
_atom_site_U_iso_or_equiv
_atom_site_adp_type
_atom_site_occupancy
Tb1    Tb    0.45626   0.27362   0.78969   0.01267  Uiso   1.00
Tb2    Tb    0.04030   0.21408   0.72485   0.01267  Uiso   1.00
Tb3    Tb    0.04374   0.22638   0.28969   0.01267  Uiso   1.00
Tb4    Tb    0.45970   0.28592   0.22485   0.01267  Uiso   1.00
K1     K     0.46288   0.28001   0.00734   0.01267  Uiso   1.00
K2     K     0.03712   0.21999   0.50734   0.01267  Uiso   1.00
H1     H     0.51420   0.27700   0.43970   0.01267  Uiso   1.00
H2     H     0.69730   0.39730   0.58010   0.01267  Uiso   1.00
H3     H     0.77790   0.92230   0.43220   0.01267  Uiso   1.00
H4     H     0.51420   0.27370   0.57650   0.01267  Uiso   1.00
H5     H     0.72210   0.57770   0.93220   0.01267  Uiso   1.00
H6     H     0.80270   0.09960   0.94320   0.01267  Uiso   1.00
H7     H     0.98580   0.22300   0.93970   0.01267  Uiso   1.00
H8     H     0.69730   0.40040   0.44320   0.01267  Uiso   1.00
H9     H     0.98580   0.22630   0.07650   0.01267  Uiso   1.00
H10    H     0.80270   0.10270   0.08010   0.01267  Uiso   1.00
H11    H     0.77290   0.91770   0.56630   0.01267  Uiso   1.00
H12    H     0.72710   0.58230   0.06630   0.01267  Uiso   1.00
C1     C     0.34360   0.25090   0.44850   0.01267  Uiso   1.00
C2     C     0.80990   0.95750   0.53800   0.01267  Uiso   1.00
C3     C     0.69010   0.54250   0.03800   0.01267  Uiso   1.00
C4     C     0.73860   0.37180   0.54940   0.01267  Uiso   1.00
C5     C     0.90710   0.06370   0.37310   0.01267  Uiso   1.00
C6     C     0.21690   0.26520   0.13610   0.01267  Uiso   1.00
C7     C     0.45130   0.26660   0.46940   0.01267  Uiso   1.00
C8     C     0.85170   0.31050   0.37890   0.01267  Uiso   1.00
C9     C     0.62640   0.47240   0.94270   0.01267  Uiso   1.00
C10    C     0.81040   0.32550   0.56840   0.01267  Uiso   1.00
C11    C     0.28690   0.24690   0.37910   0.01267  Uiso   1.00
C12    C     0.04870   0.23340   0.96940   0.01267  Uiso   1.00
C13    C     0.45150   0.26420   0.54640   0.01267  Uiso   1.00
C14    C     0.62770   0.47530   0.06120   0.01267  Uiso   1.00
C15    C     0.21310   0.25310   0.87910   0.01267  Uiso   1.00
C16    C     0.65040   0.19690   0.13890   0.01267  Uiso   1.00
C17    C     0.84960   0.30310   0.63890   0.01267  Uiso   1.00
C18    C     0.76140   0.12820   0.04940   0.01267  Uiso   1.00
C19    C     0.73870   0.37350   0.47250   0.01267  Uiso   1.00
C20    C     0.81180   0.32780   0.45060   0.01267  Uiso   1.00
C21    C     0.68820   0.17220   0.95060   0.01267  Uiso   1.00
C22    C     0.68730   0.53940   0.96300   0.01267  Uiso   1.00
C23    C     0.64830   0.18950   0.87890   0.01267  Uiso   1.00
C24    C     0.90210   0.05760   0.63280   0.01267  Uiso   1.00
C25    C     0.68960   0.17450   0.06840   0.01267  Uiso   1.00
C26    C     0.59790   0.44240   0.13280   0.01267  Uiso   1.00
C27    C     0.87360   0.02760   0.44270   0.01267  Uiso   1.00
C28    C     0.28310   0.23480   0.63610   0.01267  Uiso   1.00
C29    C     0.04850   0.23580   0.04640   0.01267  Uiso   1.00
C30    C     0.15680   0.25460   0.06620   0.01267  Uiso   1.00
C31    C     0.15640   0.24910   0.94850   0.01267  Uiso   1.00
C32    C     0.34320   0.24540   0.56620   0.01267  Uiso   1.00
C33    C     0.59290   0.43630   0.87310   0.01267  Uiso   1.00
C34    C     0.87230   0.02470   0.56120   0.01267  Uiso   1.00
C35    C     0.76130   0.12650   0.97250   0.01267  Uiso   1.00
C36    C     0.81270   0.96060   0.46300   0.01267  Uiso   1.00
O1     O     0.31740   0.26820   0.87980   0.01267  Uiso   1.00
O2     O     0.92810   0.27120   0.37670   0.01267  Uiso   1.00
O3     O     0.34480   0.24140   0.69110   0.01267  Uiso   1.00
O4     O     0.18260   0.23180   0.37980   0.01267  Uiso   1.00
O5     O     0.86270   0.02800   0.31840   0.01267  Uiso   1.00
O6     O     0.15320   0.24200   0.82400   0.01267  Uiso   1.00
O7     O     0.85940   0.01920   0.68560   0.01267  Uiso   1.00
O8     O     0.69520   0.17450   0.19340   0.01267  Uiso   1.00
O9     O     0.34680   0.25800   0.32400   0.01267  Uiso   1.00
O10    O     0.92600   0.26440   0.64050   0.01267  Uiso   1.00
O11    O     0.52780   0.37410   0.87340   0.01267  Uiso   1.00
O12    O     0.15520   0.25860   0.19110   0.01267  Uiso   1.00
O13    O     0.69110   0.16340   0.82600   0.01267  Uiso   1.00
O14    O     0.53180   0.38010   0.13530   0.01267  Uiso   1.00
O15    O     0.32160   0.27930   0.13500   0.01267  Uiso   1.00
O16    O     0.22490   0.26210   0.00730   0.01267  Uiso   1.00
O17    O     0.58800   0.43160   0.00310   0.01267  Uiso   1.00
O18    O     0.17840   0.22070   0.63500   0.01267  Uiso   1.00
O19    O     0.64270   0.20070   0.00890   0.01267  Uiso   1.00
O20    O     0.80480   0.32550   0.69340   0.01267  Uiso   1.00
O21    O     0.64060   0.48080   0.18560   0.01267  Uiso   1.00
O22    O     0.27510   0.23790   0.50730   0.01267  Uiso   1.00
O23    O     0.91200   0.06840   0.50310   0.01267  Uiso   1.00
O24    O     0.80890   0.33660   0.32600   0.01267  Uiso   1.00
O25    O     0.85730   0.29930   0.50890   0.01267  Uiso   1.00
O26    O     0.63730   0.47200   0.81840   0.01267  Uiso   1.00
O27    O     0.96820   0.11990   0.63530   0.01267  Uiso   1.00
O28    O     0.57400   0.23560   0.14050   0.01267  Uiso   1.00
O29    O     0.57190   0.22880   0.87670   0.01267  Uiso   1.00
O30    O     0.97220   0.12590   0.37340   0.01267  Uiso   1.00
Tb5    Tb    0.95626   0.77362   0.71031   0.01267  Uiso   1.00
Tb6    Tb    0.54374   0.72638   0.21031   0.01267  Uiso   1.00
Tb7    Tb    0.95970   0.78592   0.27515   0.01267  Uiso   1.00
Tb8    Tb    0.54030   0.71408   0.77515   0.01267  Uiso   1.00
K3     K     0.96288   0.78001   0.49266   0.01267  Uiso   1.00
K4     K     0.53712   0.71999   0.99266   0.01267  Uiso   1.00
H13    H     0.22210   0.07770   0.56780   0.01267  Uiso   1.00
H14    H     0.01420   0.77700   0.06030   0.01267  Uiso   1.00
H15    H     0.48580   0.72630   0.42350   0.01267  Uiso   1.00
H16    H     0.01420   0.77370   0.92350   0.01267  Uiso   1.00
H17    H     0.27790   0.42230   0.06780   0.01267  Uiso   1.00
H18    H     0.27290   0.41770   0.93370   0.01267  Uiso   1.00
H19    H     0.30270   0.60270   0.41990   0.01267  Uiso   1.00
H20    H     0.19730   0.89730   0.91990   0.01267  Uiso   1.00
H21    H     0.22710   0.08230   0.43370   0.01267  Uiso   1.00
H22    H     0.30270   0.59960   0.55680   0.01267  Uiso   1.00
H23    H     0.48580   0.72300   0.56030   0.01267  Uiso   1.00
H24    H     0.19730   0.90040   0.05680   0.01267  Uiso   1.00
C37    C     0.23870   0.87350   0.02750   0.01267  Uiso   1.00
C38    C     0.14830   0.68950   0.62110   0.01267  Uiso   1.00
C39    C     0.78310   0.73480   0.86390   0.01267  Uiso   1.00
C40    C     0.18960   0.67450   0.43160   0.01267  Uiso   1.00
C41    C     0.34960   0.80310   0.86110   0.01267  Uiso   1.00
C42    C     0.26130   0.62650   0.52750   0.01267  Uiso   1.00
C43    C     0.35170   0.81050   0.12110   0.01267  Uiso   1.00
C44    C     0.40710   0.56370   0.12690   0.01267  Uiso   1.00
C45    C     0.18820   0.67220   0.54940   0.01267  Uiso   1.00
C46    C     0.31040   0.82550   0.93160   0.01267  Uiso   1.00
C47    C     0.12640   0.97240   0.55730   0.01267  Uiso   1.00
C48    C     0.31270   0.46060   0.03700   0.01267  Uiso   1.00
C49    C     0.09290   0.93630   0.62690   0.01267  Uiso   1.00
C50    C     0.31180   0.82780   0.04940   0.01267  Uiso   1.00
C51    C     0.18730   0.03940   0.53700   0.01267  Uiso   1.00
C52    C     0.37230   0.52470   0.93880   0.01267  Uiso   1.00
C53    C     0.40210   0.55760   0.86720   0.01267  Uiso   1.00
C54    C     0.65680   0.75460   0.43380   0.01267  Uiso   1.00
C55    C     0.65640   0.74910   0.55150   0.01267  Uiso   1.00
C56    C     0.26140   0.62820   0.45060   0.01267  Uiso   1.00
C57    C     0.95130   0.76660   0.03060   0.01267  Uiso   1.00
C58    C     0.84320   0.74540   0.93380   0.01267  Uiso   1.00
C59    C     0.19010   0.04250   0.46200   0.01267  Uiso   1.00
C60    C     0.12770   0.97530   0.43880   0.01267  Uiso   1.00
C61    C     0.71310   0.75310   0.62090   0.01267  Uiso   1.00
C62    C     0.71690   0.76520   0.36390   0.01267  Uiso   1.00
C63    C     0.54870   0.73340   0.53060   0.01267  Uiso   1.00
C64    C     0.15040   0.69690   0.36110   0.01267  Uiso   1.00
C65    C     0.95150   0.76420   0.95360   0.01267  Uiso   1.00
C66    C     0.23860   0.87180   0.95060   0.01267  Uiso   1.00
C67    C     0.54850   0.73580   0.45360   0.01267  Uiso   1.00
C68    C     0.84360   0.75090   0.05150   0.01267  Uiso   1.00
C69    C     0.09790   0.94240   0.36720   0.01267  Uiso   1.00
C70    C     0.37360   0.52760   0.05730   0.01267  Uiso   1.00
C71    C     0.30990   0.45750   0.96200   0.01267  Uiso   1.00
C72    C     0.78690   0.74690   0.12090   0.01267  Uiso   1.00
O31    O     0.30890   0.83660   0.17400   0.01267  Uiso   1.00
O32    O     0.35940   0.51920   0.81440   0.01267  Uiso   1.00
O33    O     0.36270   0.52800   0.18160   0.01267  Uiso   1.00
O34    O     0.65520   0.75860   0.30890   0.01267  Uiso   1.00
O35    O     0.41200   0.56840   0.99690   0.01267  Uiso   1.00
O36    O     0.81740   0.76820   0.62020   0.01267  Uiso   1.00
O37    O     0.68260   0.73180   0.12020   0.01267  Uiso   1.00
O38    O     0.08800   0.93160   0.49690   0.01267  Uiso   1.00
O39    O     0.07190   0.72880   0.62330   0.01267  Uiso   1.00
O40    O     0.35730   0.79930   0.99110   0.01267  Uiso   1.00
O41    O     0.14060   0.98080   0.31440   0.01267  Uiso   1.00
O42    O     0.07400   0.73560   0.35950   0.01267  Uiso   1.00
O43    O     0.82160   0.77930   0.36500   0.01267  Uiso   1.00
O44    O     0.67840   0.72070   0.86500   0.01267  Uiso   1.00
O45    O     0.42810   0.77120   0.12330   0.01267  Uiso   1.00
O46    O     0.02780   0.87410   0.62660   0.01267  Uiso   1.00
O47    O     0.19520   0.67450   0.30660   0.01267  Uiso   1.00
O48    O     0.13730   0.97200   0.68160   0.01267  Uiso   1.00
O49    O     0.72490   0.76210   0.49270   0.01267  Uiso   1.00
O50    O     0.19110   0.66340   0.67400   0.01267  Uiso   1.00
O51    O     0.65320   0.74200   0.67600   0.01267  Uiso   1.00
O52    O     0.03180   0.88010   0.36470   0.01267  Uiso   1.00
O53    O     0.77510   0.73790   0.99270   0.01267  Uiso   1.00
O54    O     0.84480   0.74140   0.80890   0.01267  Uiso   1.00
O55    O     0.46820   0.61990   0.86470   0.01267  Uiso   1.00
O56    O     0.47220   0.62590   0.12660   0.01267  Uiso   1.00
O57    O     0.30480   0.82550   0.80660   0.01267  Uiso   1.00
O58    O     0.42600   0.76440   0.85950   0.01267  Uiso   1.00
O59    O     0.84680   0.75800   0.17600   0.01267  Uiso   1.00
O60    O     0.14270   0.70070   0.49110   0.01267  Uiso   1.00
