data_KOJZAL_clean
_audit_creation_date              2015-05-20
_audit_creation_method            'Materials Studio'
_symmetry_space_group_name_H-M    'P1'
_symmetry_Int_Tables_number       1
_symmetry_cell_setting            triclinic
loop_
_symmetry_equiv_pos_as_xyz
  x,y,z
_cell_length_a                    18.2409
_cell_length_b                    10.0482
_cell_length_c                    26.8950
_cell_angle_alpha                 90.0000
_cell_angle_beta                  90.0000
_cell_angle_gamma                 90.0000
loop_
_atom_site_label
_atom_site_type_symbol
_atom_site_fract_x
_atom_site_fract_y
_atom_site_fract_z
_atom_site_U_iso_or_equiv
_atom_site_adp_type
_atom_site_occupancy
H1     H     0.08060   0.32950   0.61230   0.01267  Uiso   1.00
H2     H     0.14500   0.40520   0.68080   0.01267  Uiso   1.00
H3     H     0.23630   0.04510   0.69750   0.01267  Uiso   1.00
H4     H     0.74070   0.41290   0.47090   0.01267  Uiso   1.00
H5     H     0.79680   0.64960   0.52910   0.01267  Uiso   1.00
C6     C     0.12230   0.14360   0.61212   0.01267  Uiso   1.00
C7     C     0.11300   0.27200   0.62896   0.01267  Uiso   1.00
C8     C     0.15080   0.31670   0.67000   0.01267  Uiso   1.00
C9     C     0.19630   0.23370   0.69510   0.01267  Uiso   1.00
C10    C     0.20550   0.10300   0.67970   0.01267  Uiso   1.00
C11    C     0.16910   0.05900   0.63807   0.01267  Uiso   1.00
C12    C     0.07920   0.09300   0.56837   0.01267  Uiso   1.00
N13    N     0.23220   0.29040   0.73778   0.01267  Uiso   1.00
O14    O     0.03045   0.16860   0.55178   0.01267  Uiso   1.00
O15    O     0.90523   0.02060   0.55242   0.01267  Uiso   1.00
H16    H     0.58060   0.82950   0.11230   0.01267  Uiso   1.00
H17    H     0.64500   0.90520   0.18080   0.01267  Uiso   1.00
H18    H     0.73630   0.54510   0.19750   0.01267  Uiso   1.00
H19    H     0.24070   0.91290   0.97090   0.01267  Uiso   1.00
H20    H     0.29680   0.14960   0.02910   0.01267  Uiso   1.00
C21    C     0.62230   0.64360   0.11212   0.01267  Uiso   1.00
C22    C     0.61300   0.77200   0.12896   0.01267  Uiso   1.00
C23    C     0.65080   0.81670   0.17000   0.01267  Uiso   1.00
C24    C     0.69630   0.73370   0.19510   0.01267  Uiso   1.00
C25    C     0.70550   0.60300   0.17970   0.01267  Uiso   1.00
C26    C     0.66910   0.55900   0.13807   0.01267  Uiso   1.00
C27    C     0.57920   0.59300   0.06837   0.01267  Uiso   1.00
N28    N     0.73220   0.79040   0.23778   0.01267  Uiso   1.00
O29    O     0.53045   0.66860   0.05178   0.01267  Uiso   1.00
O30    O     0.40523   0.52060   0.05242   0.01267  Uiso   1.00
H31    H     0.91940   0.67050   0.61230   0.01267  Uiso   1.00
H32    H     0.85500   0.59480   0.68080   0.01267  Uiso   1.00
H33    H     0.76370   0.95490   0.69750   0.01267  Uiso   1.00
H34    H     0.25930   0.58710   0.47090   0.01267  Uiso   1.00
H35    H     0.20320   0.35040   0.52910   0.01267  Uiso   1.00
C36    C     0.87770   0.85640   0.61212   0.01267  Uiso   1.00
C37    C     0.88700   0.72800   0.62896   0.01267  Uiso   1.00
C38    C     0.84920   0.68330   0.67000   0.01267  Uiso   1.00
C39    C     0.80370   0.76630   0.69510   0.01267  Uiso   1.00
C40    C     0.79450   0.89700   0.67970   0.01267  Uiso   1.00
C41    C     0.83090   0.94100   0.63807   0.01267  Uiso   1.00
C42    C     0.92080   0.90700   0.56837   0.01267  Uiso   1.00
N43    N     0.76780   0.70960   0.73778   0.01267  Uiso   1.00
O44    O     0.96955   0.83140   0.55178   0.01267  Uiso   1.00
O45    O     0.09477   0.97940   0.55242   0.01267  Uiso   1.00
H46    H     0.41940   0.17050   0.11230   0.01267  Uiso   1.00
H47    H     0.35500   0.09480   0.18080   0.01267  Uiso   1.00
H48    H     0.26370   0.45490   0.19750   0.01267  Uiso   1.00
H49    H     0.75930   0.08710   0.97090   0.01267  Uiso   1.00
H50    H     0.70320   0.85040   0.02910   0.01267  Uiso   1.00
C51    C     0.37770   0.35640   0.11212   0.01267  Uiso   1.00
C52    C     0.38700   0.22800   0.12896   0.01267  Uiso   1.00
C53    C     0.34920   0.18330   0.17000   0.01267  Uiso   1.00
C54    C     0.30370   0.26630   0.19510   0.01267  Uiso   1.00
C55    C     0.29450   0.39700   0.17970   0.01267  Uiso   1.00
C56    C     0.33090   0.44100   0.13807   0.01267  Uiso   1.00
C57    C     0.42080   0.40700   0.06837   0.01267  Uiso   1.00
N58    N     0.26780   0.20960   0.23778   0.01267  Uiso   1.00
O59    O     0.46955   0.33140   0.05178   0.01267  Uiso   1.00
O60    O     0.59477   0.47940   0.05242   0.01267  Uiso   1.00
H61    H     0.41940   0.82950   0.38770   0.01267  Uiso   1.00
H62    H     0.35500   0.90520   0.31920   0.01267  Uiso   1.00
H63    H     0.26370   0.54510   0.30250   0.01267  Uiso   1.00
H64    H     0.75930   0.91290   0.52910   0.01267  Uiso   1.00
H65    H     0.70320   0.14960   0.47090   0.01267  Uiso   1.00
C66    C     0.37770   0.64360   0.38788   0.01267  Uiso   1.00
C67    C     0.38700   0.77200   0.37104   0.01267  Uiso   1.00
C68    C     0.34920   0.81670   0.33000   0.01267  Uiso   1.00
C69    C     0.30370   0.73370   0.30490   0.01267  Uiso   1.00
C70    C     0.29450   0.60300   0.32030   0.01267  Uiso   1.00
C71    C     0.33090   0.55900   0.36193   0.01267  Uiso   1.00
C72    C     0.42080   0.59300   0.43163   0.01267  Uiso   1.00
N73    N     0.26780   0.79040   0.26222   0.01267  Uiso   1.00
O74    O     0.46955   0.66860   0.44822   0.01267  Uiso   1.00
O75    O     0.59477   0.52060   0.44758   0.01267  Uiso   1.00
H76    H     0.91940   0.32950   0.88770   0.01267  Uiso   1.00
H77    H     0.85500   0.40520   0.81920   0.01267  Uiso   1.00
H78    H     0.76370   0.04510   0.80250   0.01267  Uiso   1.00
H79    H     0.25930   0.41290   0.02910   0.01267  Uiso   1.00
H80    H     0.20320   0.64960   0.97090   0.01267  Uiso   1.00
C81    C     0.87770   0.14360   0.88788   0.01267  Uiso   1.00
C82    C     0.88700   0.27200   0.87104   0.01267  Uiso   1.00
C83    C     0.84920   0.31670   0.83000   0.01267  Uiso   1.00
C84    C     0.80370   0.23370   0.80490   0.01267  Uiso   1.00
C85    C     0.79450   0.10300   0.82030   0.01267  Uiso   1.00
C86    C     0.83090   0.05900   0.86193   0.01267  Uiso   1.00
C87    C     0.92080   0.09300   0.93163   0.01267  Uiso   1.00
N88    N     0.76780   0.29040   0.76222   0.01267  Uiso   1.00
O89    O     0.96955   0.16860   0.94822   0.01267  Uiso   1.00
O90    O     0.09477   0.02060   0.94758   0.01267  Uiso   1.00
H91    H     0.58060   0.17050   0.38770   0.01267  Uiso   1.00
H92    H     0.64500   0.09480   0.31920   0.01267  Uiso   1.00
H93    H     0.73630   0.45490   0.30250   0.01267  Uiso   1.00
H94    H     0.24070   0.08710   0.52910   0.01267  Uiso   1.00
H95    H     0.29680   0.85040   0.47090   0.01267  Uiso   1.00
C96    C     0.62230   0.35640   0.38788   0.01267  Uiso   1.00
C97    C     0.61300   0.22800   0.37104   0.01267  Uiso   1.00
C98    C     0.65080   0.18330   0.33000   0.01267  Uiso   1.00
C99    C     0.69630   0.26630   0.30490   0.01267  Uiso   1.00
C100   C     0.70550   0.39700   0.32030   0.01267  Uiso   1.00
C101   C     0.66910   0.44100   0.36193   0.01267  Uiso   1.00
C102   C     0.57920   0.40700   0.43163   0.01267  Uiso   1.00
N103   N     0.73220   0.20960   0.26222   0.01267  Uiso   1.00
O104   O     0.53045   0.33140   0.44822   0.01267  Uiso   1.00
O105   O     0.40523   0.47940   0.44758   0.01267  Uiso   1.00
H106   H     0.08060   0.67050   0.88770   0.01267  Uiso   1.00
H107   H     0.14500   0.59480   0.81920   0.01267  Uiso   1.00
H108   H     0.23630   0.95490   0.80250   0.01267  Uiso   1.00
H109   H     0.74070   0.58710   0.02910   0.01267  Uiso   1.00
H110   H     0.79680   0.35040   0.97090   0.01267  Uiso   1.00
C111   C     0.12230   0.85640   0.88788   0.01267  Uiso   1.00
C112   C     0.11300   0.72800   0.87104   0.01267  Uiso   1.00
C113   C     0.15080   0.68330   0.83000   0.01267  Uiso   1.00
C114   C     0.19630   0.76630   0.80490   0.01267  Uiso   1.00
C115   C     0.20550   0.89700   0.82030   0.01267  Uiso   1.00
C116   C     0.16910   0.94100   0.86193   0.01267  Uiso   1.00
C117   C     0.07920   0.90700   0.93163   0.01267  Uiso   1.00
N118   N     0.23220   0.70960   0.76222   0.01267  Uiso   1.00
O119   O     0.03045   0.83140   0.94822   0.01267  Uiso   1.00
O120   O     0.90523   0.97940   0.94758   0.01267  Uiso   1.00
H121   H     0.91940   0.67050   0.38770   0.01267  Uiso   1.00
H122   H     0.85500   0.59480   0.31920   0.01267  Uiso   1.00
H123   H     0.76370   0.95490   0.30250   0.01267  Uiso   1.00
H124   H     0.25930   0.58710   0.52910   0.01267  Uiso   1.00
H125   H     0.20320   0.35040   0.47090   0.01267  Uiso   1.00
C126   C     0.87770   0.85640   0.38788   0.01267  Uiso   1.00
C127   C     0.88700   0.72800   0.37104   0.01267  Uiso   1.00
C128   C     0.84920   0.68330   0.33000   0.01267  Uiso   1.00
C129   C     0.80370   0.76630   0.30490   0.01267  Uiso   1.00
C130   C     0.79450   0.89700   0.32030   0.01267  Uiso   1.00
C131   C     0.83090   0.94100   0.36193   0.01267  Uiso   1.00
C132   C     0.92080   0.90700   0.43163   0.01267  Uiso   1.00
N133   N     0.76780   0.70960   0.26222   0.01267  Uiso   1.00
O134   O     0.96955   0.83140   0.44822   0.01267  Uiso   1.00
O135   O     0.09477   0.97940   0.44758   0.01267  Uiso   1.00
H136   H     0.41940   0.17050   0.88770   0.01267  Uiso   1.00
H137   H     0.35500   0.09480   0.81920   0.01267  Uiso   1.00
H138   H     0.26370   0.45490   0.80250   0.01267  Uiso   1.00
H139   H     0.75930   0.08710   0.02910   0.01267  Uiso   1.00
H140   H     0.70320   0.85040   0.97090   0.01267  Uiso   1.00
C141   C     0.37770   0.35640   0.88788   0.01267  Uiso   1.00
C142   C     0.38700   0.22800   0.87104   0.01267  Uiso   1.00
C143   C     0.34920   0.18330   0.83000   0.01267  Uiso   1.00
C144   C     0.30370   0.26630   0.80490   0.01267  Uiso   1.00
C145   C     0.29450   0.39700   0.82030   0.01267  Uiso   1.00
C146   C     0.33090   0.44100   0.86193   0.01267  Uiso   1.00
C147   C     0.42080   0.40700   0.93163   0.01267  Uiso   1.00
N148   N     0.26780   0.20960   0.76222   0.01267  Uiso   1.00
O149   O     0.46955   0.33140   0.94822   0.01267  Uiso   1.00
O150   O     0.59477   0.47940   0.94758   0.01267  Uiso   1.00
H151   H     0.08060   0.32950   0.38770   0.01267  Uiso   1.00
H152   H     0.14500   0.40520   0.31920   0.01267  Uiso   1.00
H153   H     0.23630   0.04510   0.30250   0.01267  Uiso   1.00
H154   H     0.74070   0.41290   0.52910   0.01267  Uiso   1.00
H155   H     0.79680   0.64960   0.47090   0.01267  Uiso   1.00
C156   C     0.12230   0.14360   0.38788   0.01267  Uiso   1.00
C157   C     0.11300   0.27200   0.37104   0.01267  Uiso   1.00
C158   C     0.15080   0.31670   0.33000   0.01267  Uiso   1.00
C159   C     0.19630   0.23370   0.30490   0.01267  Uiso   1.00
C160   C     0.20550   0.10300   0.32030   0.01267  Uiso   1.00
C161   C     0.16910   0.05900   0.36193   0.01267  Uiso   1.00
C162   C     0.07920   0.09300   0.43163   0.01267  Uiso   1.00
N163   N     0.23220   0.29040   0.26222   0.01267  Uiso   1.00
O164   O     0.03045   0.16860   0.44822   0.01267  Uiso   1.00
O165   O     0.90523   0.02060   0.44758   0.01267  Uiso   1.00
H166   H     0.58060   0.82950   0.88770   0.01267  Uiso   1.00
H167   H     0.64500   0.90520   0.81920   0.01267  Uiso   1.00
H168   H     0.73630   0.54510   0.80250   0.01267  Uiso   1.00
H169   H     0.24070   0.91290   0.02910   0.01267  Uiso   1.00
H170   H     0.29680   0.14960   0.97090   0.01267  Uiso   1.00
C171   C     0.62230   0.64360   0.88788   0.01267  Uiso   1.00
C172   C     0.61300   0.77200   0.87104   0.01267  Uiso   1.00
C173   C     0.65080   0.81670   0.83000   0.01267  Uiso   1.00
C174   C     0.69630   0.73370   0.80490   0.01267  Uiso   1.00
C175   C     0.70550   0.60300   0.82030   0.01267  Uiso   1.00
C176   C     0.66910   0.55900   0.86193   0.01267  Uiso   1.00
C177   C     0.57920   0.59300   0.93163   0.01267  Uiso   1.00
N178   N     0.73220   0.79040   0.76222   0.01267  Uiso   1.00
O179   O     0.53045   0.66860   0.94822   0.01267  Uiso   1.00
O180   O     0.40523   0.52060   0.94758   0.01267  Uiso   1.00
H181   H     0.58060   0.17050   0.61230   0.01267  Uiso   1.00
H182   H     0.64500   0.09480   0.68080   0.01267  Uiso   1.00
H183   H     0.73630   0.45490   0.69750   0.01267  Uiso   1.00
H184   H     0.24070   0.08710   0.47090   0.01267  Uiso   1.00
H185   H     0.29680   0.85040   0.52910   0.01267  Uiso   1.00
C186   C     0.62230   0.35640   0.61212   0.01267  Uiso   1.00
C187   C     0.61300   0.22800   0.62896   0.01267  Uiso   1.00
C188   C     0.65080   0.18330   0.67000   0.01267  Uiso   1.00
C189   C     0.69630   0.26630   0.69510   0.01267  Uiso   1.00
C190   C     0.70550   0.39700   0.67970   0.01267  Uiso   1.00
C191   C     0.66910   0.44100   0.63807   0.01267  Uiso   1.00
C192   C     0.57920   0.40700   0.56837   0.01267  Uiso   1.00
N193   N     0.73220   0.20960   0.73778   0.01267  Uiso   1.00
O194   O     0.53045   0.33140   0.55178   0.01267  Uiso   1.00
O195   O     0.40523   0.47940   0.55242   0.01267  Uiso   1.00
H196   H     0.08060   0.67050   0.11230   0.01267  Uiso   1.00
H197   H     0.14500   0.59480   0.18080   0.01267  Uiso   1.00
H198   H     0.23630   0.95490   0.19750   0.01267  Uiso   1.00
H199   H     0.74070   0.58710   0.97090   0.01267  Uiso   1.00
H200   H     0.79680   0.35040   0.02910   0.01267  Uiso   1.00
C201   C     0.12230   0.85640   0.11212   0.01267  Uiso   1.00
C202   C     0.11300   0.72800   0.12896   0.01267  Uiso   1.00
C203   C     0.15080   0.68330   0.17000   0.01267  Uiso   1.00
C204   C     0.19630   0.76630   0.19510   0.01267  Uiso   1.00
C205   C     0.20550   0.89700   0.17970   0.01267  Uiso   1.00
C206   C     0.16910   0.94100   0.13807   0.01267  Uiso   1.00
C207   C     0.07920   0.90700   0.06837   0.01267  Uiso   1.00
N208   N     0.23220   0.70960   0.23778   0.01267  Uiso   1.00
O209   O     0.03045   0.83140   0.05178   0.01267  Uiso   1.00
O210   O     0.90523   0.97940   0.05242   0.01267  Uiso   1.00
H211   H     0.41940   0.82950   0.61230   0.01267  Uiso   1.00
H212   H     0.35500   0.90520   0.68080   0.01267  Uiso   1.00
H213   H     0.26370   0.54510   0.69750   0.01267  Uiso   1.00
H214   H     0.75930   0.91290   0.47090   0.01267  Uiso   1.00
H215   H     0.70320   0.14960   0.52910   0.01267  Uiso   1.00
C216   C     0.37770   0.64360   0.61212   0.01267  Uiso   1.00
C217   C     0.38700   0.77200   0.62896   0.01267  Uiso   1.00
C218   C     0.34920   0.81670   0.67000   0.01267  Uiso   1.00
C219   C     0.30370   0.73370   0.69510   0.01267  Uiso   1.00
C220   C     0.29450   0.60300   0.67970   0.01267  Uiso   1.00
C221   C     0.33090   0.55900   0.63807   0.01267  Uiso   1.00
C222   C     0.42080   0.59300   0.56837   0.01267  Uiso   1.00
N223   N     0.26780   0.79040   0.73778   0.01267  Uiso   1.00
O224   O     0.46955   0.66860   0.55178   0.01267  Uiso   1.00
O225   O     0.59477   0.52060   0.55242   0.01267  Uiso   1.00
H226   H     0.91940   0.32950   0.11230   0.01267  Uiso   1.00
H227   H     0.85500   0.40520   0.18080   0.01267  Uiso   1.00
H228   H     0.76370   0.04510   0.19750   0.01267  Uiso   1.00
H229   H     0.25930   0.41290   0.97090   0.01267  Uiso   1.00
H230   H     0.20320   0.64960   0.02910   0.01267  Uiso   1.00
C231   C     0.87770   0.14360   0.11212   0.01267  Uiso   1.00
C232   C     0.88700   0.27200   0.12896   0.01267  Uiso   1.00
C233   C     0.84920   0.31670   0.17000   0.01267  Uiso   1.00
C234   C     0.80370   0.23370   0.19510   0.01267  Uiso   1.00
C235   C     0.79450   0.10300   0.17970   0.01267  Uiso   1.00
C236   C     0.83090   0.05900   0.13807   0.01267  Uiso   1.00
C237   C     0.92080   0.09300   0.06837   0.01267  Uiso   1.00
N238   N     0.76780   0.29040   0.23778   0.01267  Uiso   1.00
O239   O     0.96955   0.16860   0.05178   0.01267  Uiso   1.00
O240   O     0.09477   0.02060   0.05242   0.01267  Uiso   1.00
Cu241  Cu    0.96110   0.11240   0.50000   0.01267  Uiso   1.00
H242   H     0.78170   0.30020   0.50000   0.01267  Uiso   1.00
H243   H     0.87080   0.66370   0.50000   0.01267  Uiso   1.00
C244   C     0.89270   0.39810   0.50000   0.01267  Uiso   1.00
H245   H     0.96510   0.46200   0.50000   0.01267  Uiso   1.00
C246   C     0.76570   0.39900   0.50000   0.01267  Uiso   1.00
C247   C     0.82520   0.61300   0.50000   0.01267  Uiso   1.00
N248   N     0.83240   0.46700   0.50000   0.01267  Uiso   1.00
O249   O     0.89060   0.28250   0.50000   0.01267  Uiso   1.00
Cu250  Cu    0.46110   0.61240   0.00000   0.01267  Uiso   1.00
H251   H     0.28170   0.80020   0.00000   0.01267  Uiso   1.00
H252   H     0.37080   0.16370   0.00000   0.01267  Uiso   1.00
C253   C     0.39270   0.89810  -0.00000   0.01267  Uiso   1.00
H254   H     0.46510   0.96200  -0.00000   0.01267  Uiso   1.00
C255   C     0.26570   0.89900   0.00000   0.01267  Uiso   1.00
C256   C     0.32520   0.11300   0.00000   0.01267  Uiso   1.00
N257   N     0.33240   0.96700   0.00000   0.01267  Uiso   1.00
O258   O     0.39060   0.78250   0.00000   0.01267  Uiso   1.00
Cu259  Cu    0.03890   0.88760   0.50000   0.01267  Uiso   1.00
H260   H     0.21830   0.69980   0.50000   0.01267  Uiso   1.00
H261   H     0.12920   0.33630   0.50000   0.01267  Uiso   1.00
C262   C     0.10730   0.60190   0.50000   0.01267  Uiso   1.00
H263   H     0.03490   0.53800   0.50000   0.01267  Uiso   1.00
C264   C     0.23430   0.60100   0.50000   0.01267  Uiso   1.00
C265   C     0.17480   0.38700   0.50000   0.01267  Uiso   1.00
N266   N     0.16760   0.53300   0.50000   0.01267  Uiso   1.00
O267   O     0.10940   0.71750   0.50000   0.01267  Uiso   1.00
Cu268  Cu    0.53890   0.38760   0.00000   0.01267  Uiso   1.00
H269   H     0.71830   0.19980   0.00000   0.01267  Uiso   1.00
H270   H     0.62920   0.83630   0.00000   0.01267  Uiso   1.00
C271   C     0.60730   0.10190   0.00000   0.01267  Uiso   1.00
H272   H     0.53490   0.03800   0.00000   0.01267  Uiso   1.00
C273   C     0.73430   0.10100   0.00000   0.01267  Uiso   1.00
C274   C     0.67480   0.88700   0.00000   0.01267  Uiso   1.00
N275   N     0.66760   0.03300   0.00000   0.01267  Uiso   1.00
O276   O     0.60940   0.21750   0.00000   0.01267  Uiso   1.00
Cu277  Cu    0.53890   0.61240   0.50000   0.01267  Uiso   1.00
H278   H     0.71830   0.80020   0.50000   0.01267  Uiso   1.00
H279   H     0.62920   0.16370   0.50000   0.01267  Uiso   1.00
C280   C     0.60730   0.89810   0.50000   0.01267  Uiso   1.00
H281   H     0.53490   0.96200   0.50000   0.01267  Uiso   1.00
C282   C     0.73430   0.89900   0.50000   0.01267  Uiso   1.00
C283   C     0.67480   0.11300   0.50000   0.01267  Uiso   1.00
N284   N     0.66760   0.96700   0.50000   0.01267  Uiso   1.00
O285   O     0.60940   0.78250   0.50000   0.01267  Uiso   1.00
Cu286  Cu    0.03890   0.11240   0.00000   0.01267  Uiso   1.00
H287   H     0.21830   0.30020  -0.00000   0.01267  Uiso   1.00
H288   H     0.12920   0.66370   0.00000   0.01267  Uiso   1.00
C289   C     0.10730   0.39810  -0.00000   0.01267  Uiso   1.00
H290   H     0.03490   0.46200  -0.00000   0.01267  Uiso   1.00
C291   C     0.23430   0.39900   0.00000   0.01267  Uiso   1.00
C292   C     0.17480   0.61300  -0.00000   0.01267  Uiso   1.00
N293   N     0.16760   0.46700  -0.00000   0.01267  Uiso   1.00
O294   O     0.10940   0.28250  -0.00000   0.01267  Uiso   1.00
Cu295  Cu    0.46110   0.38760   0.50000   0.01267  Uiso   1.00
H296   H     0.28170   0.19980   0.50000   0.01267  Uiso   1.00
H297   H     0.37080   0.83630   0.50000   0.01267  Uiso   1.00
C298   C     0.39270   0.10190   0.50000   0.01267  Uiso   1.00
H299   H     0.46510   0.03800   0.50000   0.01267  Uiso   1.00
C300   C     0.26570   0.10100   0.50000   0.01267  Uiso   1.00
C301   C     0.32520   0.88700   0.50000   0.01267  Uiso   1.00
N302   N     0.33240   0.03300   0.50000   0.01267  Uiso   1.00
O303   O     0.39060   0.21750   0.50000   0.01267  Uiso   1.00
Cu304  Cu    0.96110   0.88760   0.00000   0.01267  Uiso   1.00
H305   H     0.78170   0.69980   0.00000   0.01267  Uiso   1.00
H306   H     0.87080   0.33630  -0.00000   0.01267  Uiso   1.00
C307   C     0.89270   0.60190   0.00000   0.01267  Uiso   1.00
H308   H     0.96510   0.53800   0.00000   0.01267  Uiso   1.00
C309   C     0.76570   0.60100  -0.00000   0.01267  Uiso   1.00
C310   C     0.82520   0.38700  -0.00000   0.01267  Uiso   1.00
N311   N     0.83240   0.53300   0.00000   0.01267  Uiso   1.00
O312   O     0.89060   0.71750   0.00000   0.01267  Uiso   1.00
