data_image0
_cell_length_a       17.6121
_cell_length_b       36.855
_cell_length_c       10.0608
_cell_angle_alpha    90
_cell_angle_beta     92.548
_cell_angle_gamma    90

_symmetry_space_group_name_H-M    "P 1"
_symmetry_int_tables_number       1

loop_
  _symmetry_equiv_pos_as_xyz
  'x, y, z'

loop_
  _atom_site_label
  _atom_site_occupancy
  _atom_site_fract_x
  _atom_site_fract_y
  _atom_site_fract_z
  _atom_site_thermal_displace_type
  _atom_site_B_iso_or_equiv
  _atom_site_type_symbol
  Pb1      1.0000 0.64162  0.21566  0.08070  Biso   1.000  Pb
  O1       1.0000 0.59700  0.16240  0.30400  Biso   1.000  O
  O2       1.0000 0.56100  0.23700  0.44400  Biso   1.000  O
  O3       1.0000 0.56500  0.23280  0.24600  Biso   1.000  O
  O4       1.0000 0.76600  0.09170  0.17500  Biso   1.000  O
  O5       1.0000 0.87600  0.01530  0.23900  Biso   1.000  O
  O6       1.0000 0.76400  0.01990  0.13200  Biso   1.000  O
  O7       1.0000 0.68500  0.15760  0.86800  Biso   1.000  O
  O8       1.0000 0.71000  0.23220  0.64700  Biso   1.000  O
  O9       1.0000 0.70600  0.22910  0.86800  Biso   1.000  O
  O10      1.0000 0.51300  0.08320  0.01900  Biso   1.000  O
  O11      1.0000 0.38100  0.01040  0.00900  Biso   1.000  O
  O12      1.0000 0.48300  0.01590  0.12900  Biso   1.000  O
  C1       1.0000 0.60110  0.12540  0.33400  Biso   1.000  C
  C2       1.0000 0.53660  0.10370  0.32200  Biso   1.000  C
  C3       1.0000 0.53680  0.06940  0.37900  Biso   1.000  C
  H1       1.0000 0.49270  0.05460  0.37080  Biso   1.000  H
  C4       1.0000 0.60130  0.05680  0.44900  Biso   1.000  C
  H2       1.0000 0.60140  0.03340  0.48830  Biso   1.000  H
  C5       1.0000 0.66580  0.07850  0.46140  Biso   1.000  C
  H3       1.0000 0.71000  0.06990  0.50910  Biso   1.000  H
  C6       1.0000 0.66570  0.11280  0.40390  Biso   1.000  C
  C7       1.0000 0.77840  0.12930  0.18200  Biso   1.000  C
  C8       1.0000 0.76670  0.15040  0.29300  Biso   1.000  C
  C9       1.0000 0.78790  0.18670  0.29500  Biso   1.000  C
  H4       1.0000 0.77990  0.20110  0.37170  Biso   1.000  H
  C10      1.0000 0.82080  0.20200  0.18500  Biso   1.000  C
  H5       1.0000 0.83520  0.22680  0.18660  Biso   1.000  H
  C11      1.0000 0.83250  0.18090  0.07400  Biso   1.000  C
  H6       1.0000 0.85490  0.19140  0.99840  Biso   1.000  H
  C12      1.0000 0.81130  0.14460  0.07200  Biso   1.000  C
  C13      1.0000 0.68790  0.12030  0.85640  Biso   1.000  C
  C14      1.0000 0.75680  0.06380  0.86200  Biso   1.000  C
  H7       1.0000 0.80250  0.05070  0.87990  Biso   1.000  H
  C15      1.0000 0.75490  0.10110  0.88200  Biso   1.000  C
  C16      1.0000 0.69160  0.04570  0.81600  Biso   1.000  C
  H8       1.0000 0.69290  0.02020  0.80190  Biso   1.000  H
  C17      1.0000 0.62460  0.06490  0.79000  Biso   1.000  C
  H9       1.0000 0.58010  0.05250  0.75820  Biso   1.000  H
  C18      1.0000 0.62280  0.10220  0.81010  Biso   1.000  C
  C19      1.0000 0.50050  0.12230  0.01900  Biso   1.000  C
  C20      1.0000 0.50940  0.14110  0.90100  Biso   1.000  C
  C21      1.0000 0.48810  0.17730  0.89100  Biso   1.000  C
  H10      1.0000 0.49420  0.19020  0.81060  Biso   1.000  H
  C22      1.0000 0.45800  0.19480  0.00000  Biso   1.000  C
  H11      1.0000 0.44350  0.21960  0.99280  Biso   1.000  H
  C23      1.0000 0.44920  0.17600  0.11800  Biso   1.000  C
  H12      1.0000 0.42860  0.18790  0.19160  Biso   1.000  H
  C24      1.0000 0.47040  0.13970  0.12700  Biso   1.000  C
  C25      1.0000 0.73800  0.13300  0.41500  Biso   1.000  C
  H13      1.0000 0.77720  0.11570  0.44940  Biso   1.000  H
  H14      1.0000 0.73230  0.15180  0.48290  Biso   1.000  H
  C26      1.0000 0.82600  0.12300  0.94000  Biso   1.000  C
  H15      1.0000 0.86880  0.10610  0.95800  Biso   1.000  H
  H16      1.0000 0.84220  0.14060  0.87190  Biso   1.000  H
  C27      1.0000 0.54700  0.12210  0.78100  Biso   1.000  C
  H17      1.0000 0.51030  0.10440  0.74190  Biso   1.000  H
  H18      1.0000 0.55560  0.14070  0.71260  Biso   1.000  H
  C28      1.0000 0.45600  0.11800  0.26200  Biso   1.000  C
  H19      1.0000 0.42140  0.09730  0.24320  Biso   1.000  H
  H20      1.0000 0.43230  0.13420  0.32670  Biso   1.000  H
  C29      1.0000 0.57700  0.18310  0.41700  Biso   1.000  C
  H21      1.0000 0.62090  0.18790  0.47810  Biso   1.000  H
  H22      1.0000 0.53570  0.17140  0.46580  Biso   1.000  H
  C30      1.0000 0.55000  0.21560  0.34900  Biso   1.000  C
  C31      1.0000 0.82300  0.07070  0.23800  Biso   1.000  C
  H23      1.0000 0.82080  0.07390  0.33530  Biso   1.000  H
  H24      1.0000 0.87310  0.07970  0.21110  Biso   1.000  H
  C32      1.0000 0.81700  0.03240  0.20600  Biso   1.000  C
  C33      1.0000 0.71000  0.17560  0.74100  Biso   1.000  C
  H25      1.0000 0.76380  0.16920  0.72620  Biso   1.000  H
  H26      1.0000 0.67850  0.16700  0.66380  Biso   1.000  H
  C34      1.0000 0.70300  0.21530  0.75400  Biso   1.000  C
  C35      1.0000 0.45100  0.06380  0.97600  Biso   1.000  C
  H27      1.0000 0.45290  0.06050  0.87900  Biso   1.000  H
  H28      1.0000 0.40510  0.07850  0.99250  Biso   1.000  H
  C36      1.0000 0.44100  0.02830  0.03600  Biso   1.000  C
  Pb2      1.0000 0.64162  0.28434  0.58070  Biso   1.000  Pb
  O13      1.0000 0.59700  0.33760  0.80400  Biso   1.000  O
  O14      1.0000 0.56100  0.26300  0.94400  Biso   1.000  O
  O15      1.0000 0.56500  0.26720  0.74600  Biso   1.000  O
  O16      1.0000 0.76600  0.40830  0.67500  Biso   1.000  O
  O17      1.0000 0.87600  0.48470  0.73900  Biso   1.000  O
  O18      1.0000 0.76400  0.48010  0.63200  Biso   1.000  O
  O19      1.0000 0.68500  0.34240  0.36800  Biso   1.000  O
  O20      1.0000 0.71000  0.26780  0.14700  Biso   1.000  O
  O21      1.0000 0.70600  0.27090  0.36800  Biso   1.000  O
  O22      1.0000 0.51300  0.41680  0.51900  Biso   1.000  O
  O23      1.0000 0.38100  0.48960  0.50900  Biso   1.000  O
  O24      1.0000 0.48300  0.48410  0.62900  Biso   1.000  O
  C37      1.0000 0.60110  0.37460  0.83400  Biso   1.000  C
  C38      1.0000 0.53660  0.39630  0.82200  Biso   1.000  C
  C39      1.0000 0.53680  0.43060  0.87900  Biso   1.000  C
  H29      1.0000 0.49270  0.44540  0.87080  Biso   1.000  H
  C40      1.0000 0.60130  0.44320  0.94900  Biso   1.000  C
  H30      1.0000 0.60140  0.46660  0.98830  Biso   1.000  H
  C41      1.0000 0.66580  0.42150  0.96140  Biso   1.000  C
  H31      1.0000 0.71000  0.43010  0.00910  Biso   1.000  H
  C42      1.0000 0.66570  0.38720  0.90390  Biso   1.000  C
  C43      1.0000 0.77840  0.37070  0.68200  Biso   1.000  C
  C44      1.0000 0.76670  0.34960  0.79300  Biso   1.000  C
  C45      1.0000 0.78790  0.31330  0.79500  Biso   1.000  C
  H32      1.0000 0.77990  0.29890  0.87170  Biso   1.000  H
  C46      1.0000 0.82080  0.29800  0.68500  Biso   1.000  C
  H33      1.0000 0.83520  0.27320  0.68660  Biso   1.000  H
  C47      1.0000 0.83250  0.31910  0.57400  Biso   1.000  C
  H34      1.0000 0.85490  0.30860  0.49840  Biso   1.000  H
  C48      1.0000 0.81130  0.35540  0.57200  Biso   1.000  C
  C49      1.0000 0.68790  0.37970  0.35640  Biso   1.000  C
  C50      1.0000 0.75680  0.43620  0.36200  Biso   1.000  C
  H35      1.0000 0.80250  0.44930  0.37990  Biso   1.000  H
  C51      1.0000 0.75490  0.39890  0.38200  Biso   1.000  C
  C52      1.0000 0.69160  0.45430  0.31600  Biso   1.000  C
  H36      1.0000 0.69290  0.47980  0.30190  Biso   1.000  H
  C53      1.0000 0.62460  0.43510  0.29000  Biso   1.000  C
  H37      1.0000 0.58010  0.44750  0.25820  Biso   1.000  H
  C54      1.0000 0.62280  0.39780  0.31010  Biso   1.000  C
  C55      1.0000 0.50050  0.37770  0.51900  Biso   1.000  C
  C56      1.0000 0.50940  0.35890  0.40100  Biso   1.000  C
  C57      1.0000 0.48810  0.32270  0.39100  Biso   1.000  C
  H38      1.0000 0.49420  0.30980  0.31060  Biso   1.000  H
  C58      1.0000 0.45800  0.30520  0.50000  Biso   1.000  C
  H39      1.0000 0.44350  0.28040  0.49280  Biso   1.000  H
  C59      1.0000 0.44920  0.32400  0.61800  Biso   1.000  C
  H40      1.0000 0.42860  0.31210  0.69160  Biso   1.000  H
  C60      1.0000 0.47040  0.36030  0.62700  Biso   1.000  C
  C61      1.0000 0.73800  0.36700  0.91500  Biso   1.000  C
  H41      1.0000 0.77720  0.38430  0.94940  Biso   1.000  H
  H42      1.0000 0.73230  0.34820  0.98290  Biso   1.000  H
  C62      1.0000 0.82600  0.37700  0.44000  Biso   1.000  C
  H43      1.0000 0.86880  0.39390  0.45800  Biso   1.000  H
  H44      1.0000 0.84220  0.35940  0.37190  Biso   1.000  H
  C63      1.0000 0.54700  0.37790  0.28100  Biso   1.000  C
  H45      1.0000 0.51030  0.39560  0.24190  Biso   1.000  H
  H46      1.0000 0.55560  0.35930  0.21260  Biso   1.000  H
  C64      1.0000 0.45600  0.38200  0.76200  Biso   1.000  C
  H47      1.0000 0.42140  0.40270  0.74320  Biso   1.000  H
  H48      1.0000 0.43230  0.36580  0.82670  Biso   1.000  H
  C65      1.0000 0.57700  0.31690  0.91700  Biso   1.000  C
  H49      1.0000 0.62090  0.31210  0.97810  Biso   1.000  H
  H50      1.0000 0.53570  0.32860  0.96580  Biso   1.000  H
  C66      1.0000 0.55000  0.28440  0.84900  Biso   1.000  C
  C67      1.0000 0.82300  0.42930  0.73800  Biso   1.000  C
  H51      1.0000 0.82080  0.42610  0.83530  Biso   1.000  H
  H52      1.0000 0.87310  0.42030  0.71110  Biso   1.000  H
  C68      1.0000 0.81700  0.46760  0.70600  Biso   1.000  C
  C69      1.0000 0.71000  0.32440  0.24100  Biso   1.000  C
  H53      1.0000 0.76380  0.33080  0.22620  Biso   1.000  H
  H54      1.0000 0.67850  0.33300  0.16380  Biso   1.000  H
  C70      1.0000 0.70300  0.28470  0.25400  Biso   1.000  C
  C71      1.0000 0.45100  0.43620  0.47600  Biso   1.000  C
  H55      1.0000 0.45290  0.43950  0.37900  Biso   1.000  H
  H56      1.0000 0.40510  0.42150  0.49250  Biso   1.000  H
  C72      1.0000 0.44100  0.47170  0.53600  Biso   1.000  C
  Pb3      1.0000 0.35838  0.71566  0.41930  Biso   1.000  Pb
  O25      1.0000 0.40300  0.66240  0.19600  Biso   1.000  O
  O26      1.0000 0.43900  0.73700  0.05600  Biso   1.000  O
  O27      1.0000 0.43500  0.73280  0.25400  Biso   1.000  O
  O28      1.0000 0.23400  0.59170  0.32500  Biso   1.000  O
  O29      1.0000 0.12400  0.51530  0.26100  Biso   1.000  O
  O30      1.0000 0.23600  0.51990  0.36800  Biso   1.000  O
  O31      1.0000 0.31500  0.65760  0.63200  Biso   1.000  O
  O32      1.0000 0.29000  0.73220  0.85300  Biso   1.000  O
  O33      1.0000 0.29400  0.72910  0.63200  Biso   1.000  O
  O34      1.0000 0.48700  0.58320  0.48100  Biso   1.000  O
  O35      1.0000 0.61900  0.51040  0.49100  Biso   1.000  O
  O36      1.0000 0.51700  0.51590  0.37100  Biso   1.000  O
  C73      1.0000 0.39890  0.62540  0.16600  Biso   1.000  C
  C74      1.0000 0.46340  0.60370  0.17800  Biso   1.000  C
  C75      1.0000 0.46320  0.56940  0.12100  Biso   1.000  C
  H57      1.0000 0.50730  0.55460  0.12920  Biso   1.000  H
  C76      1.0000 0.39870  0.55680  0.05100  Biso   1.000  C
  H58      1.0000 0.39860  0.53340  0.01170  Biso   1.000  H
  C77      1.0000 0.33420  0.57850  0.03860  Biso   1.000  C
  H59      1.0000 0.29000  0.56990  0.99090  Biso   1.000  H
  C78      1.0000 0.33430  0.61280  0.09610  Biso   1.000  C
  C79      1.0000 0.22160  0.62930  0.31800  Biso   1.000  C
  C80      1.0000 0.23330  0.65040  0.20700  Biso   1.000  C
  C81      1.0000 0.21210  0.68670  0.20500  Biso   1.000  C
  H60      1.0000 0.22010  0.70110  0.12830  Biso   1.000  H
  C82      1.0000 0.17920  0.70200  0.31500  Biso   1.000  C
  H61      1.0000 0.16480  0.72680  0.31340  Biso   1.000  H
  C83      1.0000 0.16750  0.68090  0.42600  Biso   1.000  C
  H62      1.0000 0.14510  0.69140  0.50160  Biso   1.000  H
  C84      1.0000 0.18870  0.64460  0.42800  Biso   1.000  C
  C85      1.0000 0.31210  0.62030  0.64360  Biso   1.000  C
  C86      1.0000 0.24320  0.56380  0.63800  Biso   1.000  C
  H63      1.0000 0.19750  0.55070  0.62010  Biso   1.000  H
  C87      1.0000 0.24510  0.60110  0.61800  Biso   1.000  C
  C88      1.0000 0.30840  0.54570  0.68400  Biso   1.000  C
  H64      1.0000 0.30710  0.52020  0.69810  Biso   1.000  H
  C89      1.0000 0.37540  0.56490  0.71000  Biso   1.000  C
  H65      1.0000 0.41990  0.55250  0.74180  Biso   1.000  H
  C90      1.0000 0.37720  0.60220  0.68990  Biso   1.000  C
  C91      1.0000 0.49950  0.62230  0.48100  Biso   1.000  C
  C92      1.0000 0.49060  0.64110  0.59900  Biso   1.000  C
  C93      1.0000 0.51190  0.67730  0.60900  Biso   1.000  C
  H66      1.0000 0.50580  0.69020  0.68940  Biso   1.000  H
  C94      1.0000 0.54200  0.69480  0.50000  Biso   1.000  C
  H67      1.0000 0.55650  0.71960  0.50720  Biso   1.000  H
  C95      1.0000 0.55080  0.67600  0.38200  Biso   1.000  C
  H68      1.0000 0.57140  0.68790  0.30840  Biso   1.000  H
  C96      1.0000 0.52960  0.63970  0.37300  Biso   1.000  C
  C97      1.0000 0.26200  0.63300  0.08500  Biso   1.000  C
  H69      1.0000 0.22280  0.61570  0.05060  Biso   1.000  H
  H70      1.0000 0.26770  0.65180  0.01710  Biso   1.000  H
  C98      1.0000 0.17400  0.62300  0.56000  Biso   1.000  C
  H71      1.0000 0.13120  0.60610  0.54200  Biso   1.000  H
  H72      1.0000 0.15780  0.64060  0.62810  Biso   1.000  H
  C99      1.0000 0.45300  0.62210  0.71900  Biso   1.000  C
  H73      1.0000 0.48970  0.60440  0.75810  Biso   1.000  H
  H74      1.0000 0.44440  0.64070  0.78740  Biso   1.000  H
  C100     1.0000 0.54400  0.61800  0.23800  Biso   1.000  C
  H75      1.0000 0.57860  0.59730  0.25680  Biso   1.000  H
  H76      1.0000 0.56770  0.63420  0.17330  Biso   1.000  H
  C101     1.0000 0.42300  0.68310  0.08300  Biso   1.000  C
  H77      1.0000 0.37910  0.68790  0.02190  Biso   1.000  H
  H78      1.0000 0.46430  0.67140  0.03420  Biso   1.000  H
  C102     1.0000 0.45000  0.71560  0.15100  Biso   1.000  C
  C103     1.0000 0.17700  0.57070  0.26200  Biso   1.000  C
  H79      1.0000 0.17920  0.57390  0.16470  Biso   1.000  H
  H80      1.0000 0.12690  0.57970  0.28890  Biso   1.000  H
  C104     1.0000 0.18300  0.53240  0.29400  Biso   1.000  C
  C105     1.0000 0.29000  0.67560  0.75900  Biso   1.000  C
  H81      1.0000 0.23620  0.66920  0.77380  Biso   1.000  H
  H82      1.0000 0.32150  0.66700  0.83620  Biso   1.000  H
  C106     1.0000 0.29700  0.71530  0.74600  Biso   1.000  C
  C107     1.0000 0.54900  0.56380  0.52400  Biso   1.000  C
  H83      1.0000 0.54710  0.56050  0.62100  Biso   1.000  H
  H84      1.0000 0.59490  0.57850  0.50750  Biso   1.000  H
  C108     1.0000 0.55900  0.52830  0.46400  Biso   1.000  C
  Pb4      1.0000 0.35838  0.78434  0.91930  Biso   1.000  Pb
  O37      1.0000 0.40300  0.83760  0.69600  Biso   1.000  O
  O38      1.0000 0.43900  0.76300  0.55600  Biso   1.000  O
  O39      1.0000 0.43500  0.76720  0.75400  Biso   1.000  O
  O40      1.0000 0.23400  0.90830  0.82500  Biso   1.000  O
  O41      1.0000 0.12400  0.98470  0.76100  Biso   1.000  O
  O42      1.0000 0.23600  0.98010  0.86800  Biso   1.000  O
  O43      1.0000 0.31500  0.84240  0.13200  Biso   1.000  O
  O44      1.0000 0.29000  0.76780  0.35300  Biso   1.000  O
  O45      1.0000 0.29400  0.77090  0.13200  Biso   1.000  O
  O46      1.0000 0.48700  0.91680  0.98100  Biso   1.000  O
  O47      1.0000 0.61900  0.98960  0.99100  Biso   1.000  O
  O48      1.0000 0.51700  0.98410  0.87100  Biso   1.000  O
  C109     1.0000 0.39890  0.87460  0.66600  Biso   1.000  C
  C110     1.0000 0.46340  0.89630  0.67800  Biso   1.000  C
  C111     1.0000 0.46320  0.93060  0.62100  Biso   1.000  C
  H85      1.0000 0.50730  0.94540  0.62920  Biso   1.000  H
  C112     1.0000 0.39870  0.94320  0.55100  Biso   1.000  C
  H86      1.0000 0.39860  0.96660  0.51170  Biso   1.000  H
  C113     1.0000 0.33420  0.92150  0.53860  Biso   1.000  C
  H87      1.0000 0.29000  0.93010  0.49090  Biso   1.000  H
  C114     1.0000 0.33430  0.88720  0.59610  Biso   1.000  C
  C115     1.0000 0.22160  0.87070  0.81800  Biso   1.000  C
  C116     1.0000 0.23330  0.84960  0.70700  Biso   1.000  C
  C117     1.0000 0.21210  0.81330  0.70500  Biso   1.000  C
  H88      1.0000 0.22010  0.79890  0.62830  Biso   1.000  H
  C118     1.0000 0.17920  0.79800  0.81500  Biso   1.000  C
  H89      1.0000 0.16480  0.77320  0.81340  Biso   1.000  H
  C119     1.0000 0.16750  0.81910  0.92600  Biso   1.000  C
  H90      1.0000 0.14510  0.80860  0.00160  Biso   1.000  H
  C120     1.0000 0.18870  0.85540  0.92800  Biso   1.000  C
  C121     1.0000 0.31210  0.87970  0.14360  Biso   1.000  C
  C122     1.0000 0.24320  0.93620  0.13800  Biso   1.000  C
  H91      1.0000 0.19750  0.94930  0.12010  Biso   1.000  H
  C123     1.0000 0.24510  0.89890  0.11800  Biso   1.000  C
  C124     1.0000 0.30840  0.95430  0.18400  Biso   1.000  C
  H92      1.0000 0.30710  0.97980  0.19810  Biso   1.000  H
  C125     1.0000 0.37540  0.93510  0.21000  Biso   1.000  C
  H93      1.0000 0.41990  0.94750  0.24180  Biso   1.000  H
  C126     1.0000 0.37720  0.89780  0.18990  Biso   1.000  C
  C127     1.0000 0.49950  0.87770  0.98100  Biso   1.000  C
  C128     1.0000 0.49060  0.85890  0.09900  Biso   1.000  C
  C129     1.0000 0.51190  0.82270  0.10900  Biso   1.000  C
  H94      1.0000 0.50580  0.80980  0.18940  Biso   1.000  H
  C130     1.0000 0.54200  0.80520  0.00000  Biso   1.000  C
  H95      1.0000 0.55650  0.78040  0.00720  Biso   1.000  H
  C131     1.0000 0.55080  0.82400  0.88200  Biso   1.000  C
  H96      1.0000 0.57140  0.81210  0.80840  Biso   1.000  H
  C132     1.0000 0.52960  0.86030  0.87300  Biso   1.000  C
  C133     1.0000 0.26200  0.86700  0.58500  Biso   1.000  C
  H97      1.0000 0.22280  0.88430  0.55060  Biso   1.000  H
  H98      1.0000 0.26770  0.84820  0.51710  Biso   1.000  H
  C134     1.0000 0.17400  0.87700  0.06000  Biso   1.000  C
  H99      1.0000 0.13120  0.89390  0.04200  Biso   1.000  H
  H100     1.0000 0.15780  0.85940  0.12810  Biso   1.000  H
  C135     1.0000 0.45300  0.87790  0.21900  Biso   1.000  C
  H101     1.0000 0.48970  0.89560  0.25810  Biso   1.000  H
  H102     1.0000 0.44440  0.85930  0.28740  Biso   1.000  H
  C136     1.0000 0.54400  0.88200  0.73800  Biso   1.000  C
  H103     1.0000 0.57860  0.90270  0.75680  Biso   1.000  H
  H104     1.0000 0.56770  0.86580  0.67330  Biso   1.000  H
  C137     1.0000 0.42300  0.81690  0.58300  Biso   1.000  C
  H105     1.0000 0.37910  0.81210  0.52190  Biso   1.000  H
  H106     1.0000 0.46430  0.82860  0.53420  Biso   1.000  H
  C138     1.0000 0.45000  0.78440  0.65100  Biso   1.000  C
  C139     1.0000 0.17700  0.92930  0.76200  Biso   1.000  C
  H107     1.0000 0.17920  0.92610  0.66470  Biso   1.000  H
  H108     1.0000 0.12690  0.92030  0.78890  Biso   1.000  H
  C140     1.0000 0.18300  0.96760  0.79400  Biso   1.000  C
  C141     1.0000 0.29000  0.82440  0.25900  Biso   1.000  C
  H109     1.0000 0.23620  0.83080  0.27380  Biso   1.000  H
  H110     1.0000 0.32150  0.83300  0.33620  Biso   1.000  H
  C142     1.0000 0.29700  0.78470  0.24600  Biso   1.000  C
  C143     1.0000 0.54900  0.93620  0.02400  Biso   1.000  C
  H111     1.0000 0.54710  0.93950  0.12100  Biso   1.000  H
  H112     1.0000 0.59490  0.92150  0.00750  Biso   1.000  H
  C144     1.0000 0.55900  0.97170  0.96400  Biso   1.000  C
