data_image0
_cell_length_a       22.597
_cell_length_b       22.597
_cell_length_c       35.804
_cell_angle_alpha    90
_cell_angle_beta     90
_cell_angle_gamma    120

_symmetry_space_group_name_H-M    "P 1"
_symmetry_int_tables_number       1

loop_
  _symmetry_equiv_pos_as_xyz
  'x, y, z'

loop_
  _atom_site_label
  _atom_site_occupancy
  _atom_site_fract_x
  _atom_site_fract_y
  _atom_site_fract_z
  _atom_site_thermal_displace_type
  _atom_site_B_iso_or_equiv
  _atom_site_type_symbol
  Cu1      1.0000 0.31331  0.20948  0.29141  Biso   1.000  Cu
  Cu2      1.0000 0.33005  0.16333  0.20425  Biso   1.000  Cu
  Cu3      1.0000 0.35753  0.12745  0.11670  Biso   1.000  Cu
  O1       1.0000 0.34880  0.16970  0.25660  Biso   1.000  O
  O2       1.0000 0.32340  0.16600  0.15160  Biso   1.000  O
  N1       1.0000 0.39080  0.08280  0.08170  Biso   1.000  N
  N2       1.0000 0.35040  0.17070  0.06980  Biso   1.000  N
  N3       1.0000 0.37630  0.10490  0.19630  Biso   1.000  N
  N4       1.0000 0.41150  0.08800  0.21740  Biso   1.000  N
  N5       1.0000 0.37910  0.08760  0.16160  Biso   1.000  N
  C1       1.0000 0.36890  0.15050  0.03720  Biso   1.000  C
  C2       1.0000 0.39110  0.10210  0.04480  Biso   1.000  C
  C3       1.0000 0.36550  0.17380  0.00190  Biso   1.000  C
  H1       1.0000 0.36790  0.15300  0.97990  Biso   1.000  H
  C4       1.0000 0.33680  0.22240  0.06700  Biso   1.000  C
  H2       1.0000 0.32360  0.23640  0.08820  Biso   1.000  H
  C5       1.0000 0.35810  0.23120  0.00260  Biso   1.000  C
  H3       1.0000 0.36440  0.25520  0.98040  Biso   1.000  H
  N6       1.0000 0.42050  0.04600  0.07970  Biso   1.000  N
  N7       1.0000 0.41890  0.07360  0.02100  Biso   1.000  N
  N8       1.0000 0.43980  0.04140  0.04770  Biso   1.000  N
  C6       1.0000 0.43690  0.06160  0.19640  Biso   1.000  C
  C7       1.0000 0.48930  0.03920  0.20230  Biso   1.000  C
  C8       1.0000 0.58050  0.99890  0.20840  Biso   1.000  C
  H4       1.0000 0.61040  0.98180  0.20910  Biso   1.000  H
  C9       1.0000 0.52180  0.04760  0.23610  Biso   1.000  C
  H5       1.0000 0.51350  0.06930  0.25580  Biso   1.000  H
  N9       1.0000 0.42220  0.06340  0.16260  Biso   1.000  N
  N10      1.0000 0.50440  0.01790  0.17170  Biso   1.000  N
  C10      1.0000 0.54900  0.00000  0.17490  Biso   1.000  C
  H6       1.0000 0.56180  0.98650  0.15330  Biso   1.000  H
  C11      1.0000 0.34190  0.25430  0.03430  Biso   1.000  C
  H7       1.0000 0.33450  0.29120  0.03320  Biso   1.000  H
  C12      1.0000 0.56630  0.02370  0.24050  Biso   1.000  C
  H8       1.0000 0.58570  0.02410  0.26350  Biso   1.000  H
  Cu4      1.0000 0.97998  0.54281  0.62474  Biso   1.000  Cu
  Cu5      1.0000 0.99672  0.49666  0.53758  Biso   1.000  Cu
  Cu6      1.0000 0.02420  0.46078  0.45003  Biso   1.000  Cu
  O3       1.0000 0.01547  0.50303  0.58993  Biso   1.000  O
  O4       1.0000 0.99007  0.49933  0.48493  Biso   1.000  O
  N11      1.0000 0.05747  0.41613  0.41503  Biso   1.000  N
  N12      1.0000 0.01707  0.50403  0.40313  Biso   1.000  N
  N13      1.0000 0.04297  0.43823  0.52963  Biso   1.000  N
  N14      1.0000 0.07817  0.42133  0.55073  Biso   1.000  N
  N15      1.0000 0.04577  0.42093  0.49493  Biso   1.000  N
  C13      1.0000 0.03557  0.48383  0.37053  Biso   1.000  C
  C14      1.0000 0.05777  0.43543  0.37813  Biso   1.000  C
  C15      1.0000 0.03217  0.50713  0.33523  Biso   1.000  C
  H9       1.0000 0.03457  0.48633  0.31323  Biso   1.000  H
  C16      1.0000 0.00347  0.55573  0.40033  Biso   1.000  C
  H10      1.0000 0.99027  0.56973  0.42153  Biso   1.000  H
  C17      1.0000 0.02477  0.56453  0.33593  Biso   1.000  C
  H11      1.0000 0.03107  0.58853  0.31373  Biso   1.000  H
  N16      1.0000 0.08717  0.37933  0.41303  Biso   1.000  N
  N17      1.0000 0.08557  0.40693  0.35433  Biso   1.000  N
  N18      1.0000 0.10647  0.37473  0.38103  Biso   1.000  N
  C18      1.0000 0.10357  0.39493  0.52973  Biso   1.000  C
  C19      1.0000 0.15597  0.37253  0.53563  Biso   1.000  C
  C20      1.0000 0.24717  0.33223  0.54173  Biso   1.000  C
  H12      1.0000 0.27707  0.31513  0.54243  Biso   1.000  H
  C21      1.0000 0.18847  0.38093  0.56943  Biso   1.000  C
  H13      1.0000 0.18017  0.40263  0.58913  Biso   1.000  H
  N19      1.0000 0.08887  0.39673  0.49593  Biso   1.000  N
  N20      1.0000 0.17107  0.35123  0.50503  Biso   1.000  N
  C22      1.0000 0.21567  0.33333  0.50823  Biso   1.000  C
  H14      1.0000 0.22847  0.31983  0.48663  Biso   1.000  H
  C23      1.0000 0.00857  0.58763  0.36763  Biso   1.000  C
  H15      1.0000 0.00117  0.62453  0.36653  Biso   1.000  H
  C24      1.0000 0.23297  0.35703  0.57383  Biso   1.000  C
  H16      1.0000 0.25237  0.35743  0.59683  Biso   1.000  H
  Cu7      1.0000 0.64664  0.87615  0.95808  Biso   1.000  Cu
  Cu8      1.0000 0.66338  0.83000  0.87092  Biso   1.000  Cu
  Cu9      1.0000 0.69086  0.79412  0.78337  Biso   1.000  Cu
  O5       1.0000 0.68213  0.83637  0.92327  Biso   1.000  O
  O6       1.0000 0.65673  0.83267  0.81827  Biso   1.000  O
  N21      1.0000 0.72413  0.74947  0.74837  Biso   1.000  N
  N22      1.0000 0.68373  0.83737  0.73647  Biso   1.000  N
  N23      1.0000 0.70963  0.77157  0.86297  Biso   1.000  N
  N24      1.0000 0.74483  0.75467  0.88407  Biso   1.000  N
  N25      1.0000 0.71243  0.75427  0.82827  Biso   1.000  N
  C25      1.0000 0.70223  0.81717  0.70387  Biso   1.000  C
  C26      1.0000 0.72443  0.76877  0.71147  Biso   1.000  C
  C27      1.0000 0.69883  0.84047  0.66857  Biso   1.000  C
  H17      1.0000 0.70123  0.81967  0.64657  Biso   1.000  H
  C28      1.0000 0.67013  0.88907  0.73367  Biso   1.000  C
  H18      1.0000 0.65693  0.90307  0.75487  Biso   1.000  H
  C29      1.0000 0.69143  0.89787  0.66927  Biso   1.000  C
  H19      1.0000 0.69773  0.92187  0.64707  Biso   1.000  H
  N26      1.0000 0.75383  0.71267  0.74637  Biso   1.000  N
  N27      1.0000 0.75223  0.74027  0.68767  Biso   1.000  N
  N28      1.0000 0.77313  0.70807  0.71437  Biso   1.000  N
  C30      1.0000 0.77023  0.72827  0.86307  Biso   1.000  C
  C31      1.0000 0.82263  0.70587  0.86897  Biso   1.000  C
  C32      1.0000 0.91383  0.66557  0.87507  Biso   1.000  C
  H20      1.0000 0.94373  0.64847  0.87577  Biso   1.000  H
  C33      1.0000 0.85513  0.71427  0.90277  Biso   1.000  C
  H21      1.0000 0.84683  0.73597  0.92247  Biso   1.000  H
  N29      1.0000 0.75553  0.73007  0.82927  Biso   1.000  N
  N30      1.0000 0.83773  0.68457  0.83837  Biso   1.000  N
  C34      1.0000 0.88233  0.66667  0.84157  Biso   1.000  C
  H22      1.0000 0.89513  0.65317  0.81997  Biso   1.000  H
  C35      1.0000 0.67523  0.92097  0.70097  Biso   1.000  C
  H23      1.0000 0.66783  0.95787  0.69987  Biso   1.000  H
  C36      1.0000 0.89963  0.69037  0.90717  Biso   1.000  C
  H24      1.0000 0.91903  0.69077  0.93017  Biso   1.000  H
  Cu10     1.0000 0.79052  0.68669  0.79141  Biso   1.000  Cu
  Cu11     1.0000 0.83667  0.66995  0.70425  Biso   1.000  Cu
  Cu12     1.0000 0.87255  0.64247  0.61670  Biso   1.000  Cu
  O7       1.0000 0.83030  0.65120  0.75660  Biso   1.000  O
  O8       1.0000 0.83400  0.67660  0.65160  Biso   1.000  O
  N31      1.0000 0.91720  0.60920  0.58170  Biso   1.000  N
  N32      1.0000 0.82930  0.64960  0.56980  Biso   1.000  N
  N33      1.0000 0.89510  0.62370  0.69630  Biso   1.000  N
  N34      1.0000 0.91200  0.58850  0.71740  Biso   1.000  N
  N35      1.0000 0.91240  0.62090  0.66160  Biso   1.000  N
  C37      1.0000 0.84950  0.63110  0.53720  Biso   1.000  C
  C38      1.0000 0.89790  0.60890  0.54480  Biso   1.000  C
  C39      1.0000 0.82620  0.63450  0.50190  Biso   1.000  C
  H25      1.0000 0.84700  0.63210  0.47990  Biso   1.000  H
  C40      1.0000 0.77760  0.66320  0.56700  Biso   1.000  C
  H26      1.0000 0.76360  0.67640  0.58820  Biso   1.000  H
  C41      1.0000 0.76880  0.64190  0.50260  Biso   1.000  C
  H27      1.0000 0.74480  0.63560  0.48040  Biso   1.000  H
  N36      1.0000 0.95400  0.57950  0.57970  Biso   1.000  N
  N37      1.0000 0.92640  0.58110  0.52100  Biso   1.000  N
  N38      1.0000 0.95860  0.56020  0.54770  Biso   1.000  N
  C42      1.0000 0.93840  0.56310  0.69640  Biso   1.000  C
  C43      1.0000 0.96080  0.51070  0.70230  Biso   1.000  C
  C44      1.0000 0.00110  0.41950  0.70840  Biso   1.000  C
  H28      1.0000 0.01820  0.38960  0.70910  Biso   1.000  H
  C45      1.0000 0.95240  0.47820  0.73610  Biso   1.000  C
  H29      1.0000 0.93070  0.48650  0.75580  Biso   1.000  H
  N39      1.0000 0.93660  0.57780  0.66260  Biso   1.000  N
  N40      1.0000 0.98210  0.49560  0.67170  Biso   1.000  N
  C46      1.0000 0.00000  0.45100  0.67490  Biso   1.000  C
  H30      1.0000 0.01350  0.43820  0.65330  Biso   1.000  H
  C47      1.0000 0.74570  0.65810  0.53430  Biso   1.000  C
  H31      1.0000 0.70880  0.66550  0.53320  Biso   1.000  H
  C48      1.0000 0.97630  0.43370  0.74050  Biso   1.000  C
  H32      1.0000 0.97590  0.41430  0.76350  Biso   1.000  H
  Cu13     1.0000 0.45719  0.02002  0.12474  Biso   1.000  Cu
  Cu14     1.0000 0.50334  0.00328  0.03758  Biso   1.000  Cu
  Cu15     1.0000 0.53922  0.97580  0.95003  Biso   1.000  Cu
  O9       1.0000 0.49697  0.98453  0.08993  Biso   1.000  O
  O10      1.0000 0.50067  0.00993  0.98493  Biso   1.000  O
  N41      1.0000 0.58387  0.94253  0.91503  Biso   1.000  N
  N42      1.0000 0.49597  0.98293  0.90313  Biso   1.000  N
  N43      1.0000 0.56177  0.95703  0.02963  Biso   1.000  N
  N44      1.0000 0.57867  0.92183  0.05073  Biso   1.000  N
  N45      1.0000 0.57907  0.95423  0.99493  Biso   1.000  N
  C49      1.0000 0.51617  0.96443  0.87053  Biso   1.000  C
  C50      1.0000 0.56457  0.94223  0.87813  Biso   1.000  C
  C51      1.0000 0.49287  0.96783  0.83523  Biso   1.000  C
  H33      1.0000 0.51367  0.96543  0.81323  Biso   1.000  H
  C52      1.0000 0.44427  0.99653  0.90033  Biso   1.000  C
  H34      1.0000 0.43027  0.00973  0.92153  Biso   1.000  H
  C53      1.0000 0.43547  0.97523  0.83593  Biso   1.000  C
  H35      1.0000 0.41147  0.96893  0.81373  Biso   1.000  H
  N46      1.0000 0.62067  0.91283  0.91303  Biso   1.000  N
  N47      1.0000 0.59307  0.91443  0.85433  Biso   1.000  N
  N48      1.0000 0.62527  0.89353  0.88103  Biso   1.000  N
  C54      1.0000 0.60507  0.89643  0.02973  Biso   1.000  C
  C55      1.0000 0.62747  0.84403  0.03563  Biso   1.000  C
  C56      1.0000 0.66777  0.75283  0.04173  Biso   1.000  C
  H36      1.0000 0.68487  0.72293  0.04243  Biso   1.000  H
  C57      1.0000 0.61907  0.81153  0.06943  Biso   1.000  C
  H37      1.0000 0.59737  0.81983  0.08913  Biso   1.000  H
  N49      1.0000 0.60327  0.91113  0.99593  Biso   1.000  N
  N50      1.0000 0.64877  0.82893  0.00503  Biso   1.000  N
  C58      1.0000 0.66667  0.78433  0.00823  Biso   1.000  C
  H38      1.0000 0.68017  0.77153  0.98663  Biso   1.000  H
  C59      1.0000 0.41237  0.99143  0.86763  Biso   1.000  C
  H39      1.0000 0.37547  0.99883  0.86653  Biso   1.000  H
  C60      1.0000 0.64297  0.76703  0.07383  Biso   1.000  C
  H40      1.0000 0.64257  0.74763  0.09683  Biso   1.000  H
  Cu16     1.0000 0.12385  0.35336  0.45808  Biso   1.000  Cu
  Cu17     1.0000 0.17000  0.33662  0.37092  Biso   1.000  Cu
  Cu18     1.0000 0.20588  0.30914  0.28337  Biso   1.000  Cu
  O11      1.0000 0.16363  0.31787  0.42327  Biso   1.000  O
  O12      1.0000 0.16733  0.34327  0.31827  Biso   1.000  O
  N51      1.0000 0.25053  0.27587  0.24837  Biso   1.000  N
  N52      1.0000 0.16263  0.31627  0.23647  Biso   1.000  N
  N53      1.0000 0.22843  0.29037  0.36297  Biso   1.000  N
  N54      1.0000 0.24533  0.25517  0.38407  Biso   1.000  N
  N55      1.0000 0.24573  0.28757  0.32827  Biso   1.000  N
  C61      1.0000 0.18283  0.29777  0.20387  Biso   1.000  C
  C62      1.0000 0.23123  0.27557  0.21147  Biso   1.000  C
  C63      1.0000 0.15953  0.30117  0.16857  Biso   1.000  C
  H41      1.0000 0.18033  0.29877  0.14657  Biso   1.000  H
  C64      1.0000 0.11093  0.32987  0.23367  Biso   1.000  C
  H42      1.0000 0.09693  0.34307  0.25487  Biso   1.000  H
  C65      1.0000 0.10213  0.30857  0.16927  Biso   1.000  C
  H43      1.0000 0.07813  0.30227  0.14707  Biso   1.000  H
  N56      1.0000 0.28733  0.24617  0.24637  Biso   1.000  N
  N57      1.0000 0.25973  0.24777  0.18767  Biso   1.000  N
  N58      1.0000 0.29193  0.22687  0.21437  Biso   1.000  N
  C66      1.0000 0.27173  0.22977  0.36307  Biso   1.000  C
  C67      1.0000 0.29413  0.17737  0.36897  Biso   1.000  C
  C68      1.0000 0.33443  0.08617  0.37507  Biso   1.000  C
  H44      1.0000 0.35153  0.05627  0.37577  Biso   1.000  H
  C69      1.0000 0.28573  0.14487  0.40277  Biso   1.000  C
  H45      1.0000 0.26403  0.15317  0.42247  Biso   1.000  H
  N59      1.0000 0.26993  0.24447  0.32927  Biso   1.000  N
  N60      1.0000 0.31543  0.16227  0.33837  Biso   1.000  N
  C70      1.0000 0.33333  0.11767  0.34157  Biso   1.000  C
  H46      1.0000 0.34683  0.10487  0.31997  Biso   1.000  H
  C71      1.0000 0.07903  0.32477  0.20097  Biso   1.000  C
  H47      1.0000 0.04213  0.33217  0.19987  Biso   1.000  H
  C72      1.0000 0.30963  0.10037  0.40717  Biso   1.000  C
  H48      1.0000 0.30923  0.08097  0.43017  Biso   1.000  H
  Cu19     1.0000 0.79052  0.10383  0.29141  Biso   1.000  Cu
  Cu20     1.0000 0.83667  0.16672  0.20425  Biso   1.000  Cu
  Cu21     1.0000 0.87255  0.23008  0.11670  Biso   1.000  Cu
  O13      1.0000 0.83030  0.17910  0.25660  Biso   1.000  O
  O14      1.0000 0.83400  0.15740  0.15160  Biso   1.000  O
  N61      1.0000 0.91720  0.30800  0.08170  Biso   1.000  N
  N62      1.0000 0.82930  0.17970  0.06980  Biso   1.000  N
  N63      1.0000 0.89510  0.27140  0.19630  Biso   1.000  N
  N64      1.0000 0.91200  0.32350  0.21740  Biso   1.000  N
  N65      1.0000 0.91240  0.29150  0.16160  Biso   1.000  N
  C73      1.0000 0.84950  0.21840  0.03720  Biso   1.000  C
  C74      1.0000 0.89790  0.28900  0.04480  Biso   1.000  C
  C75      1.0000 0.82620  0.19170  0.00190  Biso   1.000  C
  H49      1.0000 0.84700  0.21490  0.97990  Biso   1.000  H
  C76      1.0000 0.77760  0.11440  0.06700  Biso   1.000  C
  H50      1.0000 0.76360  0.08720  0.08820  Biso   1.000  H
  C77      1.0000 0.76880  0.12690  0.00260  Biso   1.000  C
  H51      1.0000 0.74480  0.10920  0.98040  Biso   1.000  H
  N66      1.0000 0.95400  0.37450  0.07970  Biso   1.000  N
  N67      1.0000 0.92640  0.34530  0.02100  Biso   1.000  N
  N68      1.0000 0.95860  0.39840  0.04770  Biso   1.000  N
  C78      1.0000 0.93840  0.37530  0.19640  Biso   1.000  C
  C79      1.0000 0.96080  0.45010  0.20230  Biso   1.000  C
  C80      1.0000 0.00110  0.58160  0.20840  Biso   1.000  C
  H52      1.0000 0.01820  0.62860  0.20910  Biso   1.000  H
  C81      1.0000 0.95240  0.47420  0.23610  Biso   1.000  C
  H53      1.0000 0.93070  0.44420  0.25580  Biso   1.000  H
  N69      1.0000 0.93660  0.35880  0.16260  Biso   1.000  N
  N70      1.0000 0.98210  0.48650  0.17170  Biso   1.000  N
  C82      1.0000 0.00000  0.54900  0.17490  Biso   1.000  C
  H54      1.0000 0.01350  0.57530  0.15330  Biso   1.000  H
  C83      1.0000 0.74570  0.08760  0.03430  Biso   1.000  C
  H55      1.0000 0.70880  0.04330  0.03320  Biso   1.000  H
  C84      1.0000 0.97630  0.54260  0.24050  Biso   1.000  C
  H56      1.0000 0.97590  0.56160  0.26350  Biso   1.000  H
  Cu22     1.0000 0.45719  0.43716  0.62474  Biso   1.000  Cu
  Cu23     1.0000 0.50334  0.50005  0.53758  Biso   1.000  Cu
  Cu24     1.0000 0.53922  0.56341  0.45003  Biso   1.000  Cu
  O15      1.0000 0.49697  0.51243  0.58993  Biso   1.000  O
  O16      1.0000 0.50067  0.49073  0.48493  Biso   1.000  O
  N71      1.0000 0.58387  0.64133  0.41503  Biso   1.000  N
  N72      1.0000 0.49597  0.51303  0.40313  Biso   1.000  N
  N73      1.0000 0.56177  0.60473  0.52963  Biso   1.000  N
  N74      1.0000 0.57867  0.65683  0.55073  Biso   1.000  N
  N75      1.0000 0.57907  0.62483  0.49493  Biso   1.000  N
  C85      1.0000 0.51617  0.55173  0.37053  Biso   1.000  C
  C86      1.0000 0.56457  0.62233  0.37813  Biso   1.000  C
  C87      1.0000 0.49287  0.52503  0.33523  Biso   1.000  C
  H57      1.0000 0.51367  0.54823  0.31323  Biso   1.000  H
  C88      1.0000 0.44427  0.44773  0.40033  Biso   1.000  C
  H58      1.0000 0.43027  0.42053  0.42153  Biso   1.000  H
  C89      1.0000 0.43547  0.46023  0.33593  Biso   1.000  C
  H59      1.0000 0.41147  0.44253  0.31373  Biso   1.000  H
  N76      1.0000 0.62067  0.70783  0.41303  Biso   1.000  N
  N77      1.0000 0.59307  0.67863  0.35433  Biso   1.000  N
  N78      1.0000 0.62527  0.73173  0.38103  Biso   1.000  N
  C90      1.0000 0.60507  0.70863  0.52973  Biso   1.000  C
  C91      1.0000 0.62747  0.78343  0.53563  Biso   1.000  C
  C92      1.0000 0.66777  0.91493  0.54173  Biso   1.000  C
  H60      1.0000 0.68487  0.96193  0.54243  Biso   1.000  H
  C93      1.0000 0.61907  0.80753  0.56943  Biso   1.000  C
  H61      1.0000 0.59737  0.77753  0.58913  Biso   1.000  H
  N79      1.0000 0.60327  0.69213  0.49593  Biso   1.000  N
  N80      1.0000 0.64877  0.81983  0.50503  Biso   1.000  N
  C94      1.0000 0.66667  0.88233  0.50823  Biso   1.000  C
  H62      1.0000 0.68017  0.90863  0.48663  Biso   1.000  H
  C95      1.0000 0.41237  0.42093  0.36763  Biso   1.000  C
  H63      1.0000 0.37547  0.37663  0.36653  Biso   1.000  H
  C96      1.0000 0.64297  0.87593  0.57383  Biso   1.000  C
  H64      1.0000 0.64257  0.89493  0.59683  Biso   1.000  H
  Cu25     1.0000 0.12385  0.77050  0.95808  Biso   1.000  Cu
  Cu26     1.0000 0.17000  0.83339  0.87092  Biso   1.000  Cu
  Cu27     1.0000 0.20588  0.89675  0.78337  Biso   1.000  Cu
  O17      1.0000 0.16363  0.84577  0.92327  Biso   1.000  O
  O18      1.0000 0.16733  0.82407  0.81827  Biso   1.000  O
  N81      1.0000 0.25053  0.97467  0.74837  Biso   1.000  N
  N82      1.0000 0.16263  0.84637  0.73647  Biso   1.000  N
  N83      1.0000 0.22843  0.93807  0.86297  Biso   1.000  N
  N84      1.0000 0.24533  0.99017  0.88407  Biso   1.000  N
  N85      1.0000 0.24573  0.95817  0.82827  Biso   1.000  N
  C97      1.0000 0.18283  0.88507  0.70387  Biso   1.000  C
  C98      1.0000 0.23123  0.95567  0.71147  Biso   1.000  C
  C99      1.0000 0.15953  0.85837  0.66857  Biso   1.000  C
  H65      1.0000 0.18033  0.88157  0.64657  Biso   1.000  H
  C100     1.0000 0.11093  0.78107  0.73367  Biso   1.000  C
  H66      1.0000 0.09693  0.75387  0.75487  Biso   1.000  H
  C101     1.0000 0.10213  0.79357  0.66927  Biso   1.000  C
  H67      1.0000 0.07813  0.77587  0.64707  Biso   1.000  H
  N86      1.0000 0.28733  0.04117  0.74637  Biso   1.000  N
  N87      1.0000 0.25973  0.01197  0.68767  Biso   1.000  N
  N88      1.0000 0.29193  0.06507  0.71437  Biso   1.000  N
  C102     1.0000 0.27173  0.04197  0.86307  Biso   1.000  C
  C103     1.0000 0.29413  0.11677  0.86897  Biso   1.000  C
  C104     1.0000 0.33443  0.24827  0.87507  Biso   1.000  C
  H68      1.0000 0.35153  0.29527  0.87577  Biso   1.000  H
  C105     1.0000 0.28573  0.14087  0.90277  Biso   1.000  C
  H69      1.0000 0.26403  0.11087  0.92247  Biso   1.000  H
  N89      1.0000 0.26993  0.02547  0.82927  Biso   1.000  N
  N90      1.0000 0.31543  0.15317  0.83837  Biso   1.000  N
  C106     1.0000 0.33333  0.21567  0.84157  Biso   1.000  C
  H70      1.0000 0.34683  0.24197  0.81997  Biso   1.000  H
  C107     1.0000 0.07903  0.75427  0.70097  Biso   1.000  C
  H71      1.0000 0.04213  0.70997  0.69987  Biso   1.000  H
  C108     1.0000 0.30963  0.20927  0.90717  Biso   1.000  C
  H72      1.0000 0.30923  0.22827  0.93017  Biso   1.000  H
  Cu28     1.0000 0.31331  0.10383  0.79141  Biso   1.000  Cu
  Cu29     1.0000 0.33005  0.16672  0.70425  Biso   1.000  Cu
  Cu30     1.0000 0.35753  0.23008  0.61670  Biso   1.000  Cu
  O19      1.0000 0.34880  0.17910  0.75660  Biso   1.000  O
  O20      1.0000 0.32340  0.15740  0.65160  Biso   1.000  O
  N91      1.0000 0.39080  0.30800  0.58170  Biso   1.000  N
  N92      1.0000 0.35040  0.17970  0.56980  Biso   1.000  N
  N93      1.0000 0.37630  0.27140  0.69630  Biso   1.000  N
  N94      1.0000 0.41150  0.32350  0.71740  Biso   1.000  N
  N95      1.0000 0.37910  0.29150  0.66160  Biso   1.000  N
  C109     1.0000 0.36890  0.21840  0.53720  Biso   1.000  C
  C110     1.0000 0.39110  0.28900  0.54480  Biso   1.000  C
  C111     1.0000 0.36550  0.19170  0.50190  Biso   1.000  C
  H73      1.0000 0.36790  0.21490  0.47990  Biso   1.000  H
  C112     1.0000 0.33680  0.11440  0.56700  Biso   1.000  C
  H74      1.0000 0.32360  0.08720  0.58820  Biso   1.000  H
  C113     1.0000 0.35810  0.12690  0.50260  Biso   1.000  C
  H75      1.0000 0.36440  0.10920  0.48040  Biso   1.000  H
  N96      1.0000 0.42050  0.37450  0.57970  Biso   1.000  N
  N97      1.0000 0.41890  0.34530  0.52100  Biso   1.000  N
  N98      1.0000 0.43980  0.39840  0.54770  Biso   1.000  N
  C114     1.0000 0.43690  0.37530  0.69640  Biso   1.000  C
  C115     1.0000 0.48930  0.45010  0.70230  Biso   1.000  C
  C116     1.0000 0.58050  0.58160  0.70840  Biso   1.000  C
  H76      1.0000 0.61040  0.62860  0.70910  Biso   1.000  H
  C117     1.0000 0.52180  0.47420  0.73610  Biso   1.000  C
  H77      1.0000 0.51350  0.44420  0.75580  Biso   1.000  H
  N99      1.0000 0.42220  0.35880  0.66260  Biso   1.000  N
  N100     1.0000 0.50440  0.48650  0.67170  Biso   1.000  N
  C118     1.0000 0.54900  0.54900  0.67490  Biso   1.000  C
  H78      1.0000 0.56180  0.57530  0.65330  Biso   1.000  H
  C119     1.0000 0.34190  0.08760  0.53430  Biso   1.000  C
  H79      1.0000 0.33450  0.04330  0.53320  Biso   1.000  H
  C120     1.0000 0.56630  0.54260  0.74050  Biso   1.000  C
  H80      1.0000 0.58570  0.56160  0.76350  Biso   1.000  H
  Cu31     1.0000 0.97998  0.43716  0.12474  Biso   1.000  Cu
  Cu32     1.0000 0.99672  0.50005  0.03758  Biso   1.000  Cu
  Cu33     1.0000 0.02420  0.56341  0.95003  Biso   1.000  Cu
  O21      1.0000 0.01547  0.51243  0.08993  Biso   1.000  O
  O22      1.0000 0.99007  0.49073  0.98493  Biso   1.000  O
  N101     1.0000 0.05747  0.64133  0.91503  Biso   1.000  N
  N102     1.0000 0.01707  0.51303  0.90313  Biso   1.000  N
  N103     1.0000 0.04297  0.60473  0.02963  Biso   1.000  N
  N104     1.0000 0.07817  0.65683  0.05073  Biso   1.000  N
  N105     1.0000 0.04577  0.62483  0.99493  Biso   1.000  N
  C121     1.0000 0.03557  0.55173  0.87053  Biso   1.000  C
  C122     1.0000 0.05777  0.62233  0.87813  Biso   1.000  C
  C123     1.0000 0.03217  0.52503  0.83523  Biso   1.000  C
  H81      1.0000 0.03457  0.54823  0.81323  Biso   1.000  H
  C124     1.0000 0.00347  0.44773  0.90033  Biso   1.000  C
  H82      1.0000 0.99027  0.42053  0.92153  Biso   1.000  H
  C125     1.0000 0.02477  0.46023  0.83593  Biso   1.000  C
  H83      1.0000 0.03107  0.44253  0.81373  Biso   1.000  H
  N106     1.0000 0.08717  0.70783  0.91303  Biso   1.000  N
  N107     1.0000 0.08557  0.67863  0.85433  Biso   1.000  N
  N108     1.0000 0.10647  0.73173  0.88103  Biso   1.000  N
  C126     1.0000 0.10357  0.70863  0.02973  Biso   1.000  C
  C127     1.0000 0.15597  0.78343  0.03563  Biso   1.000  C
  C128     1.0000 0.24717  0.91493  0.04173  Biso   1.000  C
  H84      1.0000 0.27707  0.96193  0.04243  Biso   1.000  H
  C129     1.0000 0.18847  0.80753  0.06943  Biso   1.000  C
  H85      1.0000 0.18017  0.77753  0.08913  Biso   1.000  H
  N109     1.0000 0.08887  0.69213  0.99593  Biso   1.000  N
  N110     1.0000 0.17107  0.81983  0.00503  Biso   1.000  N
  C130     1.0000 0.21567  0.88233  0.00823  Biso   1.000  C
  H86      1.0000 0.22847  0.90863  0.98663  Biso   1.000  H
  C131     1.0000 0.00857  0.42093  0.86763  Biso   1.000  C
  H87      1.0000 0.00117  0.37663  0.86653  Biso   1.000  H
  C132     1.0000 0.23297  0.87593  0.07383  Biso   1.000  C
  H88      1.0000 0.25237  0.89493  0.09683  Biso   1.000  H
  Cu34     1.0000 0.64664  0.77050  0.45808  Biso   1.000  Cu
  Cu35     1.0000 0.66338  0.83339  0.37092  Biso   1.000  Cu
  Cu36     1.0000 0.69086  0.89675  0.28337  Biso   1.000  Cu
  O23      1.0000 0.68213  0.84577  0.42327  Biso   1.000  O
  O24      1.0000 0.65673  0.82407  0.31827  Biso   1.000  O
  N111     1.0000 0.72413  0.97467  0.24837  Biso   1.000  N
  N112     1.0000 0.68373  0.84637  0.23647  Biso   1.000  N
  N113     1.0000 0.70963  0.93807  0.36297  Biso   1.000  N
  N114     1.0000 0.74483  0.99017  0.38407  Biso   1.000  N
  N115     1.0000 0.71243  0.95817  0.32827  Biso   1.000  N
  C133     1.0000 0.70223  0.88507  0.20387  Biso   1.000  C
  C134     1.0000 0.72443  0.95567  0.21147  Biso   1.000  C
  C135     1.0000 0.69883  0.85837  0.16857  Biso   1.000  C
  H89      1.0000 0.70123  0.88157  0.14657  Biso   1.000  H
  C136     1.0000 0.67013  0.78107  0.23367  Biso   1.000  C
  H90      1.0000 0.65693  0.75387  0.25487  Biso   1.000  H
  C137     1.0000 0.69143  0.79357  0.16927  Biso   1.000  C
  H91      1.0000 0.69773  0.77587  0.14707  Biso   1.000  H
  N116     1.0000 0.75383  0.04117  0.24637  Biso   1.000  N
  N117     1.0000 0.75223  0.01197  0.18767  Biso   1.000  N
  N118     1.0000 0.77313  0.06507  0.21437  Biso   1.000  N
  C138     1.0000 0.77023  0.04197  0.36307  Biso   1.000  C
  C139     1.0000 0.82263  0.11677  0.36897  Biso   1.000  C
  C140     1.0000 0.91383  0.24827  0.37507  Biso   1.000  C
  H92      1.0000 0.94373  0.29527  0.37577  Biso   1.000  H
  C141     1.0000 0.85513  0.14087  0.40277  Biso   1.000  C
  H93      1.0000 0.84683  0.11087  0.42247  Biso   1.000  H
  N119     1.0000 0.75553  0.02547  0.32927  Biso   1.000  N
  N120     1.0000 0.83773  0.15317  0.33837  Biso   1.000  N
  C142     1.0000 0.88233  0.21567  0.34157  Biso   1.000  C
  H94      1.0000 0.89513  0.24197  0.31997  Biso   1.000  H
  C143     1.0000 0.67523  0.75427  0.20097  Biso   1.000  C
  H95      1.0000 0.66783  0.70997  0.19987  Biso   1.000  H
  C144     1.0000 0.89963  0.20927  0.40717  Biso   1.000  C
  H96      1.0000 0.91903  0.22827  0.43017  Biso   1.000  H
  Cu37     1.0000 0.89617  0.68669  0.29141  Biso   1.000  Cu
  Cu38     1.0000 0.83328  0.66995  0.20425  Biso   1.000  Cu
  Cu39     1.0000 0.76992  0.64247  0.11670  Biso   1.000  Cu
  O25      1.0000 0.82090  0.65120  0.25660  Biso   1.000  O
  O26      1.0000 0.84260  0.67660  0.15160  Biso   1.000  O
  N121     1.0000 0.69200  0.60920  0.08170  Biso   1.000  N
  N122     1.0000 0.82030  0.64960  0.06980  Biso   1.000  N
  N123     1.0000 0.72860  0.62370  0.19630  Biso   1.000  N
  N124     1.0000 0.67650  0.58850  0.21740  Biso   1.000  N
  N125     1.0000 0.70850  0.62090  0.16160  Biso   1.000  N
  C145     1.0000 0.78160  0.63110  0.03720  Biso   1.000  C
  C146     1.0000 0.71100  0.60890  0.04480  Biso   1.000  C
  C147     1.0000 0.80830  0.63450  0.00190  Biso   1.000  C
  H97      1.0000 0.78510  0.63210  0.97990  Biso   1.000  H
  C148     1.0000 0.88560  0.66320  0.06700  Biso   1.000  C
  H98      1.0000 0.91280  0.67640  0.08820  Biso   1.000  H
  C149     1.0000 0.87310  0.64190  0.00260  Biso   1.000  C
  H99      1.0000 0.89080  0.63560  0.98040  Biso   1.000  H
  N126     1.0000 0.62550  0.57950  0.07970  Biso   1.000  N
  N127     1.0000 0.65470  0.58110  0.02100  Biso   1.000  N
  N128     1.0000 0.60160  0.56020  0.04770  Biso   1.000  N
  C150     1.0000 0.62470  0.56310  0.19640  Biso   1.000  C
  C151     1.0000 0.54990  0.51070  0.20230  Biso   1.000  C
  C152     1.0000 0.41840  0.41950  0.20840  Biso   1.000  C
  H100     1.0000 0.37140  0.38960  0.20910  Biso   1.000  H
  C153     1.0000 0.52580  0.47820  0.23610  Biso   1.000  C
  H101     1.0000 0.55580  0.48650  0.25580  Biso   1.000  H
  N129     1.0000 0.64120  0.57780  0.16260  Biso   1.000  N
  N130     1.0000 0.51350  0.49560  0.17170  Biso   1.000  N
  C154     1.0000 0.45100  0.45100  0.17490  Biso   1.000  C
  H102     1.0000 0.42470  0.43820  0.15330  Biso   1.000  H
  C155     1.0000 0.91240  0.65810  0.03430  Biso   1.000  C
  H103     1.0000 0.95670  0.66550  0.03320  Biso   1.000  H
  C156     1.0000 0.45740  0.43370  0.24050  Biso   1.000  C
  H104     1.0000 0.43840  0.41430  0.26350  Biso   1.000  H
  Cu40     1.0000 0.56284  0.02002  0.62474  Biso   1.000  Cu
  Cu41     1.0000 0.49995  0.00328  0.53758  Biso   1.000  Cu
  Cu42     1.0000 0.43659  0.97580  0.45003  Biso   1.000  Cu
  O27      1.0000 0.48757  0.98453  0.58993  Biso   1.000  O
  O28      1.0000 0.50927  0.00993  0.48493  Biso   1.000  O
  N131     1.0000 0.35867  0.94253  0.41503  Biso   1.000  N
  N132     1.0000 0.48697  0.98293  0.40313  Biso   1.000  N
  N133     1.0000 0.39527  0.95703  0.52963  Biso   1.000  N
  N134     1.0000 0.34317  0.92183  0.55073  Biso   1.000  N
  N135     1.0000 0.37517  0.95423  0.49493  Biso   1.000  N
  C157     1.0000 0.44827  0.96443  0.37053  Biso   1.000  C
  C158     1.0000 0.37767  0.94223  0.37813  Biso   1.000  C
  C159     1.0000 0.47497  0.96783  0.33523  Biso   1.000  C
  H105     1.0000 0.45177  0.96543  0.31323  Biso   1.000  H
  C160     1.0000 0.55227  0.99653  0.40033  Biso   1.000  C
  H106     1.0000 0.57947  0.00973  0.42153  Biso   1.000  H
  C161     1.0000 0.53977  0.97523  0.33593  Biso   1.000  C
  H107     1.0000 0.55747  0.96893  0.31373  Biso   1.000  H
  N136     1.0000 0.29217  0.91283  0.41303  Biso   1.000  N
  N137     1.0000 0.32137  0.91443  0.35433  Biso   1.000  N
  N138     1.0000 0.26827  0.89353  0.38103  Biso   1.000  N
  C162     1.0000 0.29137  0.89643  0.52973  Biso   1.000  C
  C163     1.0000 0.21657  0.84403  0.53563  Biso   1.000  C
  C164     1.0000 0.08507  0.75283  0.54173  Biso   1.000  C
  H108     1.0000 0.03807  0.72293  0.54243  Biso   1.000  H
  C165     1.0000 0.19247  0.81153  0.56943  Biso   1.000  C
  H109     1.0000 0.22247  0.81983  0.58913  Biso   1.000  H
  N139     1.0000 0.30787  0.91113  0.49593  Biso   1.000  N
  N140     1.0000 0.18017  0.82893  0.50503  Biso   1.000  N
  C166     1.0000 0.11767  0.78433  0.50823  Biso   1.000  C
  H110     1.0000 0.09137  0.77153  0.48663  Biso   1.000  H
  C167     1.0000 0.57907  0.99143  0.36763  Biso   1.000  C
  H111     1.0000 0.62337  0.99883  0.36653  Biso   1.000  H
  C168     1.0000 0.12407  0.76703  0.57383  Biso   1.000  C
  H112     1.0000 0.10507  0.74763  0.59683  Biso   1.000  H
  Cu43     1.0000 0.22950  0.35336  0.95808  Biso   1.000  Cu
  Cu44     1.0000 0.16661  0.33662  0.87092  Biso   1.000  Cu
  Cu45     1.0000 0.10325  0.30914  0.78337  Biso   1.000  Cu
  O29      1.0000 0.15423  0.31787  0.92327  Biso   1.000  O
  O30      1.0000 0.17593  0.34327  0.81827  Biso   1.000  O
  N141     1.0000 0.02533  0.27587  0.74837  Biso   1.000  N
  N142     1.0000 0.15363  0.31627  0.73647  Biso   1.000  N
  N143     1.0000 0.06193  0.29037  0.86297  Biso   1.000  N
  N144     1.0000 0.00983  0.25517  0.88407  Biso   1.000  N
  N145     1.0000 0.04183  0.28757  0.82827  Biso   1.000  N
  C169     1.0000 0.11493  0.29777  0.70387  Biso   1.000  C
  C170     1.0000 0.04433  0.27557  0.71147  Biso   1.000  C
  C171     1.0000 0.14163  0.30117  0.66857  Biso   1.000  C
  H113     1.0000 0.11843  0.29877  0.64657  Biso   1.000  H
  C172     1.0000 0.21893  0.32987  0.73367  Biso   1.000  C
  H114     1.0000 0.24613  0.34307  0.75487  Biso   1.000  H
  C173     1.0000 0.20643  0.30857  0.66927  Biso   1.000  C
  H115     1.0000 0.22413  0.30227  0.64707  Biso   1.000  H
  N146     1.0000 0.95883  0.24617  0.74637  Biso   1.000  N
  N147     1.0000 0.98803  0.24777  0.68767  Biso   1.000  N
  N148     1.0000 0.93493  0.22687  0.71437  Biso   1.000  N
  C174     1.0000 0.95803  0.22977  0.86307  Biso   1.000  C
  C175     1.0000 0.88323  0.17737  0.86897  Biso   1.000  C
  C176     1.0000 0.75173  0.08617  0.87507  Biso   1.000  C
  H116     1.0000 0.70473  0.05627  0.87577  Biso   1.000  H
  C177     1.0000 0.85913  0.14487  0.90277  Biso   1.000  C
  H117     1.0000 0.88913  0.15317  0.92247  Biso   1.000  H
  N149     1.0000 0.97453  0.24447  0.82927  Biso   1.000  N
  N150     1.0000 0.84683  0.16227  0.83837  Biso   1.000  N
  C178     1.0000 0.78433  0.11767  0.84157  Biso   1.000  C
  H118     1.0000 0.75803  0.10487  0.81997  Biso   1.000  H
  C179     1.0000 0.24573  0.32477  0.70097  Biso   1.000  C
  H119     1.0000 0.29003  0.33217  0.69987  Biso   1.000  H
  C180     1.0000 0.79073  0.10037  0.90717  Biso   1.000  C
  H120     1.0000 0.77173  0.08097  0.93017  Biso   1.000  H
  Cu46     1.0000 0.89617  0.20948  0.79141  Biso   1.000  Cu
  Cu47     1.0000 0.83328  0.16333  0.70425  Biso   1.000  Cu
  Cu48     1.0000 0.76992  0.12745  0.61670  Biso   1.000  Cu
  O31      1.0000 0.82090  0.16970  0.75660  Biso   1.000  O
  O32      1.0000 0.84260  0.16600  0.65160  Biso   1.000  O
  N151     1.0000 0.69200  0.08280  0.58170  Biso   1.000  N
  N152     1.0000 0.82030  0.17070  0.56980  Biso   1.000  N
  N153     1.0000 0.72860  0.10490  0.69630  Biso   1.000  N
  N154     1.0000 0.67650  0.08800  0.71740  Biso   1.000  N
  N155     1.0000 0.70850  0.08760  0.66160  Biso   1.000  N
  C181     1.0000 0.78160  0.15050  0.53720  Biso   1.000  C
  C182     1.0000 0.71100  0.10210  0.54480  Biso   1.000  C
  C183     1.0000 0.80830  0.17380  0.50190  Biso   1.000  C
  H121     1.0000 0.78510  0.15300  0.47990  Biso   1.000  H
  C184     1.0000 0.88560  0.22240  0.56700  Biso   1.000  C
  H122     1.0000 0.91280  0.23640  0.58820  Biso   1.000  H
  C185     1.0000 0.87310  0.23120  0.50260  Biso   1.000  C
  H123     1.0000 0.89080  0.25520  0.48040  Biso   1.000  H
  N156     1.0000 0.62550  0.04600  0.57970  Biso   1.000  N
  N157     1.0000 0.65470  0.07360  0.52100  Biso   1.000  N
  N158     1.0000 0.60160  0.04140  0.54770  Biso   1.000  N
  C186     1.0000 0.62470  0.06160  0.69640  Biso   1.000  C
  C187     1.0000 0.54990  0.03920  0.70230  Biso   1.000  C
  C188     1.0000 0.41840  0.99890  0.70840  Biso   1.000  C
  H124     1.0000 0.37140  0.98180  0.70910  Biso   1.000  H
  C189     1.0000 0.52580  0.04760  0.73610  Biso   1.000  C
  H125     1.0000 0.55580  0.06930  0.75580  Biso   1.000  H
  N159     1.0000 0.64120  0.06340  0.66260  Biso   1.000  N
  N160     1.0000 0.51350  0.01790  0.67170  Biso   1.000  N
  C190     1.0000 0.45100  0.00000  0.67490  Biso   1.000  C
  H126     1.0000 0.42470  0.98650  0.65330  Biso   1.000  H
  C191     1.0000 0.91240  0.25430  0.53430  Biso   1.000  C
  H127     1.0000 0.95670  0.29120  0.53320  Biso   1.000  H
  C192     1.0000 0.45740  0.02370  0.74050  Biso   1.000  C
  H128     1.0000 0.43840  0.02410  0.76350  Biso   1.000  H
  Cu49     1.0000 0.56284  0.54281  0.12474  Biso   1.000  Cu
  Cu50     1.0000 0.49995  0.49666  0.03758  Biso   1.000  Cu
  Cu51     1.0000 0.43659  0.46078  0.95003  Biso   1.000  Cu
  O33      1.0000 0.48757  0.50303  0.08993  Biso   1.000  O
  O34      1.0000 0.50927  0.49933  0.98493  Biso   1.000  O
  N161     1.0000 0.35867  0.41613  0.91503  Biso   1.000  N
  N162     1.0000 0.48697  0.50403  0.90313  Biso   1.000  N
  N163     1.0000 0.39527  0.43823  0.02963  Biso   1.000  N
  N164     1.0000 0.34317  0.42133  0.05073  Biso   1.000  N
  N165     1.0000 0.37517  0.42093  0.99493  Biso   1.000  N
  C193     1.0000 0.44827  0.48383  0.87053  Biso   1.000  C
  C194     1.0000 0.37767  0.43543  0.87813  Biso   1.000  C
  C195     1.0000 0.47497  0.50713  0.83523  Biso   1.000  C
  H129     1.0000 0.45177  0.48633  0.81323  Biso   1.000  H
  C196     1.0000 0.55227  0.55573  0.90033  Biso   1.000  C
  H130     1.0000 0.57947  0.56973  0.92153  Biso   1.000  H
  C197     1.0000 0.53977  0.56453  0.83593  Biso   1.000  C
  H131     1.0000 0.55747  0.58853  0.81373  Biso   1.000  H
  N166     1.0000 0.29217  0.37933  0.91303  Biso   1.000  N
  N167     1.0000 0.32137  0.40693  0.85433  Biso   1.000  N
  N168     1.0000 0.26827  0.37473  0.88103  Biso   1.000  N
  C198     1.0000 0.29137  0.39493  0.02973  Biso   1.000  C
  C199     1.0000 0.21657  0.37253  0.03563  Biso   1.000  C
  C200     1.0000 0.08507  0.33223  0.04173  Biso   1.000  C
  H132     1.0000 0.03807  0.31513  0.04243  Biso   1.000  H
  C201     1.0000 0.19247  0.38093  0.06943  Biso   1.000  C
  H133     1.0000 0.22247  0.40263  0.08913  Biso   1.000  H
  N169     1.0000 0.30787  0.39673  0.99593  Biso   1.000  N
  N170     1.0000 0.18017  0.35123  0.00503  Biso   1.000  N
  C202     1.0000 0.11767  0.33333  0.00823  Biso   1.000  C
  H134     1.0000 0.09137  0.31983  0.98663  Biso   1.000  H
  C203     1.0000 0.57907  0.58763  0.86763  Biso   1.000  C
  H135     1.0000 0.62337  0.62453  0.86653  Biso   1.000  H
  C204     1.0000 0.12407  0.35703  0.07383  Biso   1.000  C
  H136     1.0000 0.10507  0.35743  0.09683  Biso   1.000  H
  Cu52     1.0000 0.22950  0.87615  0.45808  Biso   1.000  Cu
  Cu53     1.0000 0.16661  0.83000  0.37092  Biso   1.000  Cu
  Cu54     1.0000 0.10325  0.79412  0.28337  Biso   1.000  Cu
  O35      1.0000 0.15423  0.83637  0.42327  Biso   1.000  O
  O36      1.0000 0.17593  0.83267  0.31827  Biso   1.000  O
  N171     1.0000 0.02533  0.74947  0.24837  Biso   1.000  N
  N172     1.0000 0.15363  0.83737  0.23647  Biso   1.000  N
  N173     1.0000 0.06193  0.77157  0.36297  Biso   1.000  N
  N174     1.0000 0.00983  0.75467  0.38407  Biso   1.000  N
  N175     1.0000 0.04183  0.75427  0.32827  Biso   1.000  N
  C205     1.0000 0.11493  0.81717  0.20387  Biso   1.000  C
  C206     1.0000 0.04433  0.76877  0.21147  Biso   1.000  C
  C207     1.0000 0.14163  0.84047  0.16857  Biso   1.000  C
  H137     1.0000 0.11843  0.81967  0.14657  Biso   1.000  H
  C208     1.0000 0.21893  0.88907  0.23367  Biso   1.000  C
  H138     1.0000 0.24613  0.90307  0.25487  Biso   1.000  H
  C209     1.0000 0.20643  0.89787  0.16927  Biso   1.000  C
  H139     1.0000 0.22413  0.92187  0.14707  Biso   1.000  H
  N176     1.0000 0.95883  0.71267  0.24637  Biso   1.000  N
  N177     1.0000 0.98803  0.74027  0.18767  Biso   1.000  N
  N178     1.0000 0.93493  0.70807  0.21437  Biso   1.000  N
  C210     1.0000 0.95803  0.72827  0.36307  Biso   1.000  C
  C211     1.0000 0.88323  0.70587  0.36897  Biso   1.000  C
  C212     1.0000 0.75173  0.66557  0.37507  Biso   1.000  C
  H140     1.0000 0.70473  0.64847  0.37577  Biso   1.000  H
  C213     1.0000 0.85913  0.71427  0.40277  Biso   1.000  C
  H141     1.0000 0.88913  0.73597  0.42247  Biso   1.000  H
  N179     1.0000 0.97453  0.73007  0.32927  Biso   1.000  N
  N180     1.0000 0.84683  0.68457  0.33837  Biso   1.000  N
  C214     1.0000 0.78433  0.66667  0.34157  Biso   1.000  C
  H142     1.0000 0.75803  0.65317  0.31997  Biso   1.000  H
  C215     1.0000 0.24573  0.92097  0.20097  Biso   1.000  C
  H143     1.0000 0.29003  0.95787  0.19987  Biso   1.000  H
  C216     1.0000 0.79073  0.69037  0.40717  Biso   1.000  C
  H144     1.0000 0.77173  0.69077  0.43017  Biso   1.000  H
