data_LIWYEX_clean
_audit_creation_date              2015-10-16
_audit_creation_method            'Materials Studio'
_symmetry_space_group_name_H-M    'P1'
_symmetry_Int_Tables_number       1
_symmetry_cell_setting            triclinic
loop_
_symmetry_equiv_pos_as_xyz
  x,y,z
_cell_length_a                    13.9336
_cell_length_b                    14.5762
_cell_length_c                    14.5762
_cell_angle_alpha                 99.8529
_cell_angle_beta                  113.4310
_cell_angle_gamma                 113.4310
loop_
_atom_site_label
_atom_site_type_symbol
_atom_site_fract_x
_atom_site_fract_y
_atom_site_fract_z
_atom_site_U_iso_or_equiv
_atom_site_adp_type
_atom_site_occupancy
Ag1    Ag    0.32663   0.90406   0.38434   0.01267  Uiso   1.00
Ag2    Ag    0.85081   0.90878   0.05216   0.01267  Uiso   1.00
Ag3    Ag    0.14919   0.09122   0.94784   0.01267  Uiso   1.00
Ag4    Ag    0.35081   0.05216   0.90878   0.01267  Uiso   1.00
Ag5    Ag    0.17337   0.61566   0.09594   0.01267  Uiso   1.00
Ag6    Ag    0.82663   0.38434   0.90406   0.01267  Uiso   1.00
Ag7    Ag    0.67337   0.09594   0.61566   0.01267  Uiso   1.00
Ag8    Ag    0.64919   0.94784   0.09122   0.01267  Uiso   1.00
H1     H     0.24260   0.32480   0.92440   0.01267  Uiso   1.00
H2     H     0.69500   0.81990   0.79710   0.01267  Uiso   1.00
H3     H     0.93840   0.61830   0.89330   0.01267  Uiso   1.00
H4     H     0.88200   0.17280   0.84600   0.01267  Uiso   1.00
H5     H     0.61800   0.15400   0.82720   0.01267  Uiso   1.00
H6     H     0.73100   0.50720   0.01020   0.01267  Uiso   1.00
H7     H     0.74260   0.92440   0.32480   0.01267  Uiso   1.00
H8     H     0.85970   0.34560   0.12880   0.01267  Uiso   1.00
H9     H     0.76900   0.98980   0.49280   0.01267  Uiso   1.00
H10    H     0.56160   0.10670   0.38170   0.01267  Uiso   1.00
H11    H     0.11800   0.82720   0.15400   0.01267  Uiso   1.00
H12    H     0.19500   0.79710   0.81990   0.01267  Uiso   1.00
H13    H     0.23100   0.01020   0.50720   0.01267  Uiso   1.00
H14    H     0.75740   0.67520   0.07560   0.01267  Uiso   1.00
H15    H     0.30500   0.18010   0.20290   0.01267  Uiso   1.00
H16    H     0.38200   0.84600   0.17280   0.01267  Uiso   1.00
H17    H     0.35970   0.12880   0.34560   0.01267  Uiso   1.00
H18    H     0.25740   0.07560   0.67520   0.01267  Uiso   1.00
H19    H     0.26900   0.49280   0.98980   0.01267  Uiso   1.00
H20    H     0.14030   0.65440   0.87120   0.01267  Uiso   1.00
H21    H     0.64030   0.87120   0.65440   0.01267  Uiso   1.00
H22    H     0.43840   0.89330   0.61830   0.01267  Uiso   1.00
H23    H     0.80500   0.20290   0.18010   0.01267  Uiso   1.00
H24    H     0.06160   0.38170   0.10670   0.01267  Uiso   1.00
C1     C     0.38030   0.92230   0.06930   0.01267  Uiso   1.00
C2     C     0.11970   0.93070   0.07770   0.01267  Uiso   1.00
C3     C     0.20090   0.72360   0.92420   0.01267  Uiso   1.00
C4     C     0.73460   0.89320   0.80920   0.01267  Uiso   1.00
C5     C     0.65740   0.16500   0.90020   0.01267  Uiso   1.00
C6     C     0.84260   0.09980   0.83500   0.01267  Uiso   1.00
C7     C     0.70090   0.92420   0.72360   0.01267  Uiso   1.00
C8     C     0.79520   0.66520   0.03780   0.01267  Uiso   1.00
C9     C     0.23460   0.80920   0.89320   0.01267  Uiso   1.00
C10    C     0.34260   0.83500   0.09980   0.01267  Uiso   1.00
C11    C     0.61970   0.07770   0.93070   0.01267  Uiso   1.00
C12    C     0.72070   0.00190   0.43630   0.01267  Uiso   1.00
C13    C     0.91610   0.72780   0.96860   0.01267  Uiso   1.00
C14    C     0.26540   0.10680   0.19080   0.01267  Uiso   1.00
C15    C     0.10010   0.37170   0.06970   0.01267  Uiso   1.00
C16    C     0.88030   0.06930   0.92230   0.01267  Uiso   1.00
C17    C     0.79910   0.27640   0.07580   0.01267  Uiso   1.00
C18    C     0.08390   0.27220   0.03140   0.01267  Uiso   1.00
C19    C     0.41610   0.96860   0.72780   0.01267  Uiso   1.00
C20    C     0.20480   0.33480   0.96220   0.01267  Uiso   1.00
C21    C     0.76540   0.19080   0.10680   0.01267  Uiso   1.00
C22    C     0.70480   0.96220   0.33480   0.01267  Uiso   1.00
C23    C     0.15740   0.90020   0.16500   0.01267  Uiso   1.00
C24    C     0.27930   0.99810   0.56370   0.01267  Uiso   1.00
C25    C     0.29910   0.07580   0.27640   0.01267  Uiso   1.00
C26    C     0.29520   0.03780   0.66520   0.01267  Uiso   1.00
C27    C     0.39990   0.93030   0.62830   0.01267  Uiso   1.00
C28    C     0.58390   0.03140   0.27220   0.01267  Uiso   1.00
C29    C     0.60010   0.06970   0.37170   0.01267  Uiso   1.00
C30    C     0.77930   0.56370   0.99810   0.01267  Uiso   1.00
C31    C     0.89990   0.62830   0.93030   0.01267  Uiso   1.00
C32    C     0.22070   0.43630   0.00190   0.01267  Uiso   1.00
S1     S     0.50477   0.94448   0.83754   0.01267  Uiso   1.00
S2     S     0.49523   0.05552   0.16246   0.01267  Uiso   1.00
S3     S     0.00477   0.83754   0.94448   0.01267  Uiso   1.00
S4     S     0.99523   0.16246   0.05552   0.01267  Uiso   1.00
N1     N     0.25210   0.73690   0.02730   0.01267  Uiso   1.00
N2     N     0.32330   0.90970   0.96610   0.01267  Uiso   1.00
N3     N     0.13700   0.25210   0.97710   0.01267  Uiso   1.00
N4     N     0.63700   0.97710   0.25210   0.01267  Uiso   1.00
N5     N     0.75210   0.02730   0.73690   0.01267  Uiso   1.00
N6     N     0.74790   0.26310   0.97270   0.01267  Uiso   1.00
N7     N     0.17670   0.03390   0.09030   0.01267  Uiso   1.00
N8     N     0.24790   0.97270   0.26310   0.01267  Uiso   1.00
N9     N     0.16980   0.45580   0.05600   0.01267  Uiso   1.00
N10    N     0.66980   0.05600   0.45580   0.01267  Uiso   1.00
N11    N     0.82330   0.96610   0.90970   0.01267  Uiso   1.00
N12    N     0.67670   0.09030   0.03390   0.01267  Uiso   1.00
N13    N     0.36300   0.02290   0.74790   0.01267  Uiso   1.00
N14    N     0.86300   0.74790   0.02290   0.01267  Uiso   1.00
N15    N     0.33020   0.94400   0.54420   0.01267  Uiso   1.00
N16    N     0.83020   0.54420   0.94400   0.01267  Uiso   1.00
