data_image0
_cell_length_a       15.939
_cell_length_b       20.857
_cell_length_c       14.374
_cell_angle_alpha    90
_cell_angle_beta     90
_cell_angle_gamma    90

_symmetry_space_group_name_H-M    "P 1"
_symmetry_int_tables_number       1

loop_
  _symmetry_equiv_pos_as_xyz
  'x, y, z'

loop_
  _atom_site_label
  _atom_site_occupancy
  _atom_site_fract_x
  _atom_site_fract_y
  _atom_site_fract_z
  _atom_site_thermal_displace_type
  _atom_site_B_iso_or_equiv
  _atom_site_type_symbol
  C1       1.0000 0.00000  0.68250  0.32160  Biso   1.000  C
  C2       1.0000 0.00000  0.74790  0.27730  Biso   1.000  C
  C3       1.0000 0.00000  0.75370  0.17970  Biso   1.000  C
  H1       1.0000 0.00000  0.71700  0.14290  Biso   1.000  H
  C4       1.0000 0.00000  0.81390  0.13790  Biso   1.000  C
  H2       1.0000 0.00000  0.81750  0.07340  Biso   1.000  H
  C5       1.0000 0.00000  0.86870  0.19320  Biso   1.000  C
  C6       1.0000 0.00000  0.86360  0.28990  Biso   1.000  C
  H3       1.0000 0.00000  0.90030  0.32650  Biso   1.000  H
  C7       1.0000 0.00000  0.80310  0.33180  Biso   1.000  C
  C8       1.0000 0.00000  0.93520  0.14870  Biso   1.000  C
  N1       1.0000 0.00000  0.80110  0.42800  Biso   1.000  N
  O1       1.0000 0.00000  0.63360  0.26910  Biso   1.000  O
  O2       1.0000 0.00000  0.67710  0.40800  Biso   1.000  O
  O3       1.0000 0.00000  0.93930  0.06310  Biso   1.000  O
  O4       1.0000 0.00000  0.98170  0.20160  Biso   1.000  O
  Cd1      1.0000 0.00000  0.56434  0.40106  Biso   1.000  Cd
  C9       1.0000 0.00000  0.81750  0.82160  Biso   1.000  C
  C10      1.0000 0.00000  0.75210  0.77730  Biso   1.000  C
  C11      1.0000 0.00000  0.74630  0.67970  Biso   1.000  C
  H4       1.0000 0.00000  0.78300  0.64290  Biso   1.000  H
  C12      1.0000 0.00000  0.68610  0.63790  Biso   1.000  C
  H5       1.0000 0.00000  0.68250  0.57340  Biso   1.000  H
  C13      1.0000 0.00000  0.63130  0.69320  Biso   1.000  C
  C14      1.0000 0.00000  0.63640  0.78990  Biso   1.000  C
  H6       1.0000 0.00000  0.59970  0.82650  Biso   1.000  H
  C15      1.0000 0.00000  0.69690  0.83180  Biso   1.000  C
  C16      1.0000 0.00000  0.56480  0.64870  Biso   1.000  C
  N2       1.0000 0.00000  0.69890  0.92800  Biso   1.000  N
  O5       1.0000 0.00000  0.86640  0.76910  Biso   1.000  O
  O6       1.0000 0.00000  0.82290  0.90800  Biso   1.000  O
  O7       1.0000 0.00000  0.56070  0.56310  Biso   1.000  O
  O8       1.0000 0.00000  0.51830  0.70160  Biso   1.000  O
  Cd2      1.0000 0.00000  0.93566  0.90106  Biso   1.000  Cd
  C17      1.0000 0.00000  0.18250  0.17840  Biso   1.000  C
  C18      1.0000 0.00000  0.24790  0.22270  Biso   1.000  C
  C19      1.0000 0.00000  0.25370  0.32030  Biso   1.000  C
  H7       1.0000 0.00000  0.21700  0.35710  Biso   1.000  H
  C20      1.0000 0.00000  0.31390  0.36210  Biso   1.000  C
  H8       1.0000 0.00000  0.31750  0.42660  Biso   1.000  H
  C21      1.0000 0.00000  0.36870  0.30680  Biso   1.000  C
  C22      1.0000 0.00000  0.36360  0.21010  Biso   1.000  C
  H9       1.0000 0.00000  0.40030  0.17350  Biso   1.000  H
  C23      1.0000 0.00000  0.30310  0.16820  Biso   1.000  C
  C24      1.0000 0.00000  0.43520  0.35130  Biso   1.000  C
  N3       1.0000 0.00000  0.30110  0.07200  Biso   1.000  N
  O9       1.0000 0.00000  0.13360  0.23090  Biso   1.000  O
  O10      1.0000 0.00000  0.17710  0.09200  Biso   1.000  O
  O11      1.0000 0.00000  0.43930  0.43690  Biso   1.000  O
  O12      1.0000 0.00000  0.48170  0.29840  Biso   1.000  O
  Cd3      1.0000 0.00000  0.06434  0.09894  Biso   1.000  Cd
  C25      1.0000 0.00000  0.31750  0.67840  Biso   1.000  C
  C26      1.0000 0.00000  0.25210  0.72270  Biso   1.000  C
  C27      1.0000 0.00000  0.24630  0.82030  Biso   1.000  C
  H10      1.0000 0.00000  0.28300  0.85710  Biso   1.000  H
  C28      1.0000 0.00000  0.18610  0.86210  Biso   1.000  C
  H11      1.0000 0.00000  0.18250  0.92660  Biso   1.000  H
  C29      1.0000 0.00000  0.13130  0.80680  Biso   1.000  C
  C30      1.0000 0.00000  0.13640  0.71010  Biso   1.000  C
  H12      1.0000 0.00000  0.09970  0.67350  Biso   1.000  H
  C31      1.0000 0.00000  0.19690  0.66820  Biso   1.000  C
  C32      1.0000 0.00000  0.06480  0.85130  Biso   1.000  C
  N4       1.0000 0.00000  0.19890  0.57200  Biso   1.000  N
  O13      1.0000 0.00000  0.36640  0.73090  Biso   1.000  O
  O14      1.0000 0.00000  0.32290  0.59200  Biso   1.000  O
  O15      1.0000 0.00000  0.06070  0.93690  Biso   1.000  O
  O16      1.0000 0.00000  0.01830  0.79840  Biso   1.000  O
  Cd4      1.0000 0.00000  0.43566  0.59894  Biso   1.000  Cd
  C33      1.0000 0.50000  0.18250  0.32160  Biso   1.000  C
  C34      1.0000 0.50000  0.24790  0.27730  Biso   1.000  C
  C35      1.0000 0.50000  0.25370  0.17970  Biso   1.000  C
  H13      1.0000 0.50000  0.21700  0.14290  Biso   1.000  H
  C36      1.0000 0.50000  0.31390  0.13790  Biso   1.000  C
  H14      1.0000 0.50000  0.31750  0.07340  Biso   1.000  H
  C37      1.0000 0.50000  0.36870  0.19320  Biso   1.000  C
  C38      1.0000 0.50000  0.36360  0.28990  Biso   1.000  C
  H15      1.0000 0.50000  0.40030  0.32650  Biso   1.000  H
  C39      1.0000 0.50000  0.30310  0.33180  Biso   1.000  C
  C40      1.0000 0.50000  0.43520  0.14870  Biso   1.000  C
  N5       1.0000 0.50000  0.30110  0.42800  Biso   1.000  N
  O17      1.0000 0.50000  0.13360  0.26910  Biso   1.000  O
  O18      1.0000 0.50000  0.17710  0.40800  Biso   1.000  O
  O19      1.0000 0.50000  0.43930  0.06310  Biso   1.000  O
  O20      1.0000 0.50000  0.48170  0.20160  Biso   1.000  O
  Cd5      1.0000 0.50000  0.06434  0.40106  Biso   1.000  Cd
  C41      1.0000 0.50000  0.31750  0.82160  Biso   1.000  C
  C42      1.0000 0.50000  0.25210  0.77730  Biso   1.000  C
  C43      1.0000 0.50000  0.24630  0.67970  Biso   1.000  C
  H16      1.0000 0.50000  0.28300  0.64290  Biso   1.000  H
  C44      1.0000 0.50000  0.18610  0.63790  Biso   1.000  C
  H17      1.0000 0.50000  0.18250  0.57340  Biso   1.000  H
  C45      1.0000 0.50000  0.13130  0.69320  Biso   1.000  C
  C46      1.0000 0.50000  0.13640  0.78990  Biso   1.000  C
  H18      1.0000 0.50000  0.09970  0.82650  Biso   1.000  H
  C47      1.0000 0.50000  0.19690  0.83180  Biso   1.000  C
  C48      1.0000 0.50000  0.06480  0.64870  Biso   1.000  C
  N6       1.0000 0.50000  0.19890  0.92800  Biso   1.000  N
  O21      1.0000 0.50000  0.36640  0.76910  Biso   1.000  O
  O22      1.0000 0.50000  0.32290  0.90800  Biso   1.000  O
  O23      1.0000 0.50000  0.06070  0.56310  Biso   1.000  O
  O24      1.0000 0.50000  0.01830  0.70160  Biso   1.000  O
  Cd6      1.0000 0.50000  0.43566  0.90106  Biso   1.000  Cd
  C49      1.0000 0.50000  0.68250  0.17840  Biso   1.000  C
  C50      1.0000 0.50000  0.74790  0.22270  Biso   1.000  C
  C51      1.0000 0.50000  0.75370  0.32030  Biso   1.000  C
  H19      1.0000 0.50000  0.71700  0.35710  Biso   1.000  H
  C52      1.0000 0.50000  0.81390  0.36210  Biso   1.000  C
  H20      1.0000 0.50000  0.81750  0.42660  Biso   1.000  H
  C53      1.0000 0.50000  0.86870  0.30680  Biso   1.000  C
  C54      1.0000 0.50000  0.86360  0.21010  Biso   1.000  C
  H21      1.0000 0.50000  0.90030  0.17350  Biso   1.000  H
  C55      1.0000 0.50000  0.80310  0.16820  Biso   1.000  C
  C56      1.0000 0.50000  0.93520  0.35130  Biso   1.000  C
  N7       1.0000 0.50000  0.80110  0.07200  Biso   1.000  N
  O25      1.0000 0.50000  0.63360  0.23090  Biso   1.000  O
  O26      1.0000 0.50000  0.67710  0.09200  Biso   1.000  O
  O27      1.0000 0.50000  0.93930  0.43690  Biso   1.000  O
  O28      1.0000 0.50000  0.98170  0.29840  Biso   1.000  O
  Cd7      1.0000 0.50000  0.56434  0.09894  Biso   1.000  Cd
  C57      1.0000 0.50000  0.81750  0.67840  Biso   1.000  C
  C58      1.0000 0.50000  0.75210  0.72270  Biso   1.000  C
  C59      1.0000 0.50000  0.74630  0.82030  Biso   1.000  C
  H22      1.0000 0.50000  0.78300  0.85710  Biso   1.000  H
  C60      1.0000 0.50000  0.68610  0.86210  Biso   1.000  C
  H23      1.0000 0.50000  0.68250  0.92660  Biso   1.000  H
  C61      1.0000 0.50000  0.63130  0.80680  Biso   1.000  C
  C62      1.0000 0.50000  0.63640  0.71010  Biso   1.000  C
  H24      1.0000 0.50000  0.59970  0.67350  Biso   1.000  H
  C63      1.0000 0.50000  0.69690  0.66820  Biso   1.000  C
  C64      1.0000 0.50000  0.56480  0.85130  Biso   1.000  C
  N8       1.0000 0.50000  0.69890  0.57200  Biso   1.000  N
  O29      1.0000 0.50000  0.86640  0.73090  Biso   1.000  O
  O30      1.0000 0.50000  0.82290  0.59200  Biso   1.000  O
  O31      1.0000 0.50000  0.56070  0.93690  Biso   1.000  O
  O32      1.0000 0.50000  0.51830  0.79840  Biso   1.000  O
  Cd8      1.0000 0.50000  0.93566  0.59894  Biso   1.000  Cd
