data_image0
_cell_length_a       36.42
_cell_length_b       36.42
_cell_length_c       7.799
_cell_angle_alpha    90
_cell_angle_beta     90
_cell_angle_gamma    120

_symmetry_space_group_name_H-M    "P 1"
_symmetry_int_tables_number       1

loop_
  _symmetry_equiv_pos_as_xyz
  'x, y, z'

loop_
  _atom_site_label
  _atom_site_occupancy
  _atom_site_fract_x
  _atom_site_fract_y
  _atom_site_fract_z
  _atom_site_thermal_displace_type
  _atom_site_B_iso_or_equiv
  _atom_site_type_symbol
  Cd1      1.0000 0.40837  0.08918  0.83710  Biso   1.000  Cd
  N1       1.0000 0.31050  0.23060  0.42700  Biso   1.000  N
  C1       1.0000 0.34270  0.25430  0.32700  Biso   1.000  C
  H1       1.0000 0.34560  0.27980  0.28830  Biso   1.000  H
  C2       1.0000 0.37290  0.24370  0.27500  Biso   1.000  C
  H2       1.0000 0.39510  0.26180  0.20360  Biso   1.000  H
  C3       1.0000 0.36960  0.20660  0.32900  Biso   1.000  C
  C4       1.0000 0.33630  0.18180  0.43300  Biso   1.000  C
  H3       1.0000 0.33260  0.15610  0.47410  Biso   1.000  H
  C5       1.0000 0.30770  0.19500  0.47900  Biso   1.000  C
  H4       1.0000 0.28520  0.17750  0.55070  Biso   1.000  H
  C6       1.0000 0.39930  0.19180  0.27100  Biso   1.000  C
  C7       1.0000 0.43630  0.21830  0.18200  Biso   1.000  C
  H5       1.0000 0.44290  0.24600  0.15920  Biso   1.000  H
  C8       1.0000 0.46400  0.20480  0.12600  Biso   1.000  C
  H6       1.0000 0.48860  0.22310  0.06690  Biso   1.000  H
  C9       1.0000 0.45410  0.16380  0.16000  Biso   1.000  C
  C10      1.0000 0.41790  0.13630  0.24800  Biso   1.000  C
  H7       1.0000 0.41150  0.10870  0.27080  Biso   1.000  H
  C11      1.0000 0.39080  0.15070  0.30200  Biso   1.000  C
  H8       1.0000 0.36630  0.13220  0.36150  Biso   1.000  H
  C12      1.0000 0.48370  0.14870  0.09800  Biso   1.000  C
  C13      1.0000 0.52550  0.17120  0.14700  Biso   1.000  C
  H9       1.0000 0.53590  0.19600  0.21090  Biso   1.000  H
  C14      1.0000 0.55270  0.15520  0.09800  Biso   1.000  C
  H10      1.0000 0.58120  0.16940  0.12830  Biso   1.000  H
  C15      1.0000 0.53660  0.12020  0.00900  Biso   1.000  C
  H11      1.0000 0.55380  0.10930  0.97590  Biso   1.000  H
  C16      1.0000 0.49510  0.09970  0.96500  Biso   1.000  C
  H12      1.0000 0.48450  0.07490  0.90140  Biso   1.000  H
  N2       1.0000 0.46840  0.11370  0.00900  Biso   1.000  N
  Cd2      1.0000 0.25830  0.24415  0.49623  Biso   1.000  Cd
  N3       1.0000 0.35617  0.10273  0.90633  Biso   1.000  N
  C17      1.0000 0.32397  0.07903  0.00633  Biso   1.000  C
  H13      1.0000 0.32107  0.05353  0.04503  Biso   1.000  H
  C18      1.0000 0.29377  0.08963  0.05833  Biso   1.000  C
  H14      1.0000 0.27157  0.07153  0.12973  Biso   1.000  H
  C19      1.0000 0.29707  0.12673  0.00433  Biso   1.000  C
  C20      1.0000 0.33037  0.15153  0.90033  Biso   1.000  C
  H15      1.0000 0.33407  0.17723  0.85923  Biso   1.000  H
  C21      1.0000 0.35897  0.13833  0.85433  Biso   1.000  C
  H16      1.0000 0.38147  0.15583  0.78263  Biso   1.000  H
  C22      1.0000 0.26737  0.14153  0.06233  Biso   1.000  C
  C23      1.0000 0.23037  0.11503  0.15133  Biso   1.000  C
  H17      1.0000 0.22377  0.08733  0.17413  Biso   1.000  H
  C24      1.0000 0.20267  0.12853  0.20733  Biso   1.000  C
  H18      1.0000 0.17807  0.11023  0.26643  Biso   1.000  H
  C25      1.0000 0.21257  0.16953  0.17333  Biso   1.000  C
  C26      1.0000 0.24877  0.19703  0.08533  Biso   1.000  C
  H19      1.0000 0.25517  0.22463  0.06253  Biso   1.000  H
  C27      1.0000 0.27587  0.18263  0.03133  Biso   1.000  C
  H20      1.0000 0.30037  0.20113  0.97183  Biso   1.000  H
  C28      1.0000 0.18297  0.18463  0.23533  Biso   1.000  C
  C29      1.0000 0.14117  0.16213  0.18633  Biso   1.000  C
  H21      1.0000 0.13077  0.13733  0.12243  Biso   1.000  H
  C30      1.0000 0.11397  0.17813  0.23533  Biso   1.000  C
  H22      1.0000 0.08547  0.16393  0.20503  Biso   1.000  H
  C31      1.0000 0.13007  0.21313  0.32433  Biso   1.000  C
  H23      1.0000 0.11287  0.22403  0.35743  Biso   1.000  H
  C32      1.0000 0.17157  0.23363  0.36833  Biso   1.000  C
  H24      1.0000 0.18217  0.25843  0.43193  Biso   1.000  H
  N4       1.0000 0.19827  0.21963  0.32433  Biso   1.000  N
  Cd3      1.0000 0.07504  0.42251  0.17043  Biso   1.000  Cd
  N5       1.0000 0.97717  0.56393  0.76033  Biso   1.000  N
  C33      1.0000 0.00937  0.58763  0.66033  Biso   1.000  C
  H25      1.0000 0.01227  0.61313  0.62163  Biso   1.000  H
  C34      1.0000 0.03957  0.57703  0.60833  Biso   1.000  C
  H26      1.0000 0.06177  0.59513  0.53693  Biso   1.000  H
  C35      1.0000 0.03627  0.53993  0.66233  Biso   1.000  C
  C36      1.0000 0.00297  0.51513  0.76633  Biso   1.000  C
  H27      1.0000 0.99927  0.48943  0.80743  Biso   1.000  H
  C37      1.0000 0.97437  0.52833  0.81233  Biso   1.000  C
  H28      1.0000 0.95187  0.51083  0.88403  Biso   1.000  H
  C38      1.0000 0.06597  0.52513  0.60433  Biso   1.000  C
  C39      1.0000 0.10297  0.55163  0.51533  Biso   1.000  C
  H29      1.0000 0.10957  0.57933  0.49253  Biso   1.000  H
  C40      1.0000 0.13067  0.53813  0.45933  Biso   1.000  C
  H30      1.0000 0.15527  0.55643  0.40023  Biso   1.000  H
  C41      1.0000 0.12077  0.49713  0.49333  Biso   1.000  C
  C42      1.0000 0.08457  0.46963  0.58133  Biso   1.000  C
  H31      1.0000 0.07817  0.44203  0.60413  Biso   1.000  H
  C43      1.0000 0.05747  0.48403  0.63533  Biso   1.000  C
  H32      1.0000 0.03297  0.46553  0.69483  Biso   1.000  H
  C44      1.0000 0.15037  0.48203  0.43133  Biso   1.000  C
  C45      1.0000 0.19217  0.50453  0.48033  Biso   1.000  C
  H33      1.0000 0.20257  0.52933  0.54423  Biso   1.000  H
  C46      1.0000 0.21937  0.48853  0.43133  Biso   1.000  C
  H34      1.0000 0.24787  0.50273  0.46163  Biso   1.000  H
  C47      1.0000 0.20327  0.45353  0.34233  Biso   1.000  C
  H35      1.0000 0.22047  0.44263  0.30923  Biso   1.000  H
  C48      1.0000 0.16177  0.43303  0.29833  Biso   1.000  C
  H36      1.0000 0.15117  0.40823  0.23473  Biso   1.000  H
  N6       1.0000 0.13507  0.44703  0.34233  Biso   1.000  N
  Cd4      1.0000 0.92496  0.57749  0.82957  Biso   1.000  Cd
  N7       1.0000 0.02283  0.43607  0.23967  Biso   1.000  N
  C49      1.0000 0.99063  0.41237  0.33967  Biso   1.000  C
  H37      1.0000 0.98773  0.38687  0.37837  Biso   1.000  H
  C50      1.0000 0.96043  0.42297  0.39167  Biso   1.000  C
  H38      1.0000 0.93823  0.40487  0.46307  Biso   1.000  H
  C51      1.0000 0.96373  0.46007  0.33767  Biso   1.000  C
  C52      1.0000 0.99703  0.48487  0.23367  Biso   1.000  C
  H39      1.0000 0.00073  0.51057  0.19257  Biso   1.000  H
  C53      1.0000 0.02563  0.47167  0.18767  Biso   1.000  C
  H40      1.0000 0.04813  0.48917  0.11597  Biso   1.000  H
  C54      1.0000 0.93403  0.47487  0.39567  Biso   1.000  C
  C55      1.0000 0.89703  0.44837  0.48467  Biso   1.000  C
  H41      1.0000 0.89043  0.42067  0.50747  Biso   1.000  H
  C56      1.0000 0.86933  0.46187  0.54067  Biso   1.000  C
  H42      1.0000 0.84473  0.44357  0.59977  Biso   1.000  H
  C57      1.0000 0.87923  0.50287  0.50667  Biso   1.000  C
  C58      1.0000 0.91543  0.53037  0.41867  Biso   1.000  C
  H43      1.0000 0.92183  0.55797  0.39587  Biso   1.000  H
  C59      1.0000 0.94253  0.51597  0.36467  Biso   1.000  C
  H44      1.0000 0.96703  0.53447  0.30517  Biso   1.000  H
  C60      1.0000 0.84963  0.51797  0.56867  Biso   1.000  C
  C61      1.0000 0.80783  0.49547  0.51967  Biso   1.000  C
  H45      1.0000 0.79743  0.47067  0.45577  Biso   1.000  H
  C62      1.0000 0.78063  0.51147  0.56867  Biso   1.000  C
  H46      1.0000 0.75213  0.49727  0.53837  Biso   1.000  H
  C63      1.0000 0.79673  0.54647  0.65767  Biso   1.000  C
  H47      1.0000 0.77953  0.55737  0.69077  Biso   1.000  H
  C64      1.0000 0.83823  0.56697  0.70167  Biso   1.000  C
  H48      1.0000 0.84883  0.59177  0.76527  Biso   1.000  H
  N8       1.0000 0.86493  0.55297  0.65767  Biso   1.000  N
  Cd5      1.0000 0.74170  0.75585  0.50377  Biso   1.000  Cd
  N9       1.0000 0.64383  0.89727  0.09367  Biso   1.000  N
  C65      1.0000 0.67603  0.92097  0.99367  Biso   1.000  C
  H49      1.0000 0.67893  0.94647  0.95497  Biso   1.000  H
  C66      1.0000 0.70623  0.91037  0.94167  Biso   1.000  C
  H50      1.0000 0.72843  0.92847  0.87027  Biso   1.000  H
  C67      1.0000 0.70293  0.87327  0.99567  Biso   1.000  C
  C68      1.0000 0.66963  0.84847  0.09967  Biso   1.000  C
  H51      1.0000 0.66593  0.82277  0.14077  Biso   1.000  H
  C69      1.0000 0.64103  0.86167  0.14567  Biso   1.000  C
  H52      1.0000 0.61853  0.84417  0.21737  Biso   1.000  H
  C70      1.0000 0.73263  0.85847  0.93767  Biso   1.000  C
  C71      1.0000 0.76963  0.88497  0.84867  Biso   1.000  C
  H53      1.0000 0.77623  0.91267  0.82587  Biso   1.000  H
  C72      1.0000 0.79733  0.87147  0.79267  Biso   1.000  C
  H54      1.0000 0.82193  0.88977  0.73357  Biso   1.000  H
  C73      1.0000 0.78743  0.83047  0.82667  Biso   1.000  C
  C74      1.0000 0.75123  0.80297  0.91467  Biso   1.000  C
  H55      1.0000 0.74483  0.77537  0.93747  Biso   1.000  H
  C75      1.0000 0.72413  0.81737  0.96867  Biso   1.000  C
  H56      1.0000 0.69963  0.79887  0.02817  Biso   1.000  H
  C76      1.0000 0.81703  0.81537  0.76467  Biso   1.000  C
  C77      1.0000 0.85883  0.83787  0.81367  Biso   1.000  C
  H57      1.0000 0.86923  0.86267  0.87757  Biso   1.000  H
  C78      1.0000 0.88603  0.82187  0.76467  Biso   1.000  C
  H58      1.0000 0.91453  0.83607  0.79497  Biso   1.000  H
  C79      1.0000 0.86993  0.78687  0.67567  Biso   1.000  C
  H59      1.0000 0.88713  0.77597  0.64257  Biso   1.000  H
  C80      1.0000 0.82843  0.76637  0.63167  Biso   1.000  C
  H60      1.0000 0.81783  0.74157  0.56807  Biso   1.000  H
  N10      1.0000 0.80173  0.78037  0.67567  Biso   1.000  N
  Cd6      1.0000 0.59163  0.91082  0.16290  Biso   1.000  Cd
  N11      1.0000 0.68950  0.76940  0.57300  Biso   1.000  N
  C81      1.0000 0.65730  0.74570  0.67300  Biso   1.000  C
  H61      1.0000 0.65440  0.72020  0.71170  Biso   1.000  H
  C82      1.0000 0.62710  0.75630  0.72500  Biso   1.000  C
  H62      1.0000 0.60490  0.73820  0.79640  Biso   1.000  H
  C83      1.0000 0.63040  0.79340  0.67100  Biso   1.000  C
  C84      1.0000 0.66370  0.81820  0.56700  Biso   1.000  C
  H63      1.0000 0.66740  0.84390  0.52590  Biso   1.000  H
  C85      1.0000 0.69230  0.80500  0.52100  Biso   1.000  C
  H64      1.0000 0.71480  0.82250  0.44930  Biso   1.000  H
  C86      1.0000 0.60070  0.80820  0.72900  Biso   1.000  C
  C87      1.0000 0.56370  0.78170  0.81800  Biso   1.000  C
  H65      1.0000 0.55710  0.75400  0.84080  Biso   1.000  H
  C88      1.0000 0.53600  0.79520  0.87400  Biso   1.000  C
  H66      1.0000 0.51140  0.77690  0.93310  Biso   1.000  H
  C89      1.0000 0.54590  0.83620  0.84000  Biso   1.000  C
  C90      1.0000 0.58210  0.86370  0.75200  Biso   1.000  C
  H67      1.0000 0.58850  0.89130  0.72920  Biso   1.000  H
  C91      1.0000 0.60920  0.84930  0.69800  Biso   1.000  C
  H68      1.0000 0.63370  0.86780  0.63850  Biso   1.000  H
  C92      1.0000 0.51630  0.85130  0.90200  Biso   1.000  C
  C93      1.0000 0.47450  0.82880  0.85300  Biso   1.000  C
  H69      1.0000 0.46410  0.80400  0.78910  Biso   1.000  H
  C94      1.0000 0.44730  0.84480  0.90200  Biso   1.000  C
  H70      1.0000 0.41880  0.83060  0.87170  Biso   1.000  H
  C95      1.0000 0.46340  0.87980  0.99100  Biso   1.000  C
  H71      1.0000 0.44620  0.89070  0.02410  Biso   1.000  H
  C96      1.0000 0.50490  0.90030  0.03500  Biso   1.000  C
  H72      1.0000 0.51550  0.92510  0.09860  Biso   1.000  H
  N12      1.0000 0.53160  0.88630  0.99100  Biso   1.000  N
  Cd7      1.0000 0.91082  0.31919  0.83710  Biso   1.000  Cd
  N13      1.0000 0.76940  0.07990  0.42700  Biso   1.000  N
  C97      1.0000 0.74570  0.08840  0.32700  Biso   1.000  C
  H73      1.0000 0.72020  0.06580  0.28830  Biso   1.000  H
  C98      1.0000 0.75630  0.12920  0.27500  Biso   1.000  C
  H74      1.0000 0.73820  0.13330  0.20360  Biso   1.000  H
  C99      1.0000 0.79340  0.16300  0.32900  Biso   1.000  C
  C100     1.0000 0.81820  0.15450  0.43300  Biso   1.000  C
  H75      1.0000 0.84390  0.17650  0.47410  Biso   1.000  H
  C101     1.0000 0.80500  0.11270  0.47900  Biso   1.000  C
  H76      1.0000 0.82250  0.10770  0.55070  Biso   1.000  H
  C102     1.0000 0.80820  0.20750  0.27100  Biso   1.000  C
  C103     1.0000 0.78170  0.21800  0.18200  Biso   1.000  C
  H77      1.0000 0.75400  0.19690  0.15920  Biso   1.000  H
  C104     1.0000 0.79520  0.25920  0.12600  Biso   1.000  C
  H78      1.0000 0.77690  0.26550  0.06690  Biso   1.000  H
  C105     1.0000 0.83620  0.29030  0.16000  Biso   1.000  C
  C106     1.0000 0.86370  0.28160  0.24800  Biso   1.000  C
  H79      1.0000 0.89130  0.30280  0.27080  Biso   1.000  H
  C107     1.0000 0.84930  0.24010  0.30200  Biso   1.000  C
  H80      1.0000 0.86780  0.23410  0.36150  Biso   1.000  H
  C108     1.0000 0.85130  0.33500  0.09800  Biso   1.000  C
  C109     1.0000 0.82880  0.35430  0.14700  Biso   1.000  C
  H81      1.0000 0.80400  0.33990  0.21090  Biso   1.000  H
  C110     1.0000 0.84480  0.39750  0.09800  Biso   1.000  C
  H82      1.0000 0.83060  0.41180  0.12830  Biso   1.000  H
  C111     1.0000 0.87980  0.41640  0.00900  Biso   1.000  C
  H83      1.0000 0.89070  0.44450  0.97590  Biso   1.000  H
  C112     1.0000 0.90030  0.39540  0.96500  Biso   1.000  C
  H84      1.0000 0.92510  0.40960  0.90140  Biso   1.000  H
  N14      1.0000 0.88630  0.35470  0.00900  Biso   1.000  N
  Cd8      1.0000 0.75585  0.01414  0.49623  Biso   1.000  Cd
  N15      1.0000 0.89727  0.25343  0.90633  Biso   1.000  N
  C113     1.0000 0.92097  0.24493  0.00633  Biso   1.000  C
  H85      1.0000 0.94647  0.26753  0.04503  Biso   1.000  H
  C114     1.0000 0.91037  0.20413  0.05833  Biso   1.000  C
  H86      1.0000 0.92847  0.20003  0.12973  Biso   1.000  H
  C115     1.0000 0.87327  0.17033  0.00433  Biso   1.000  C
  C116     1.0000 0.84847  0.17883  0.90033  Biso   1.000  C
  H87      1.0000 0.82277  0.15683  0.85923  Biso   1.000  H
  C117     1.0000 0.86167  0.22063  0.85433  Biso   1.000  C
  H88      1.0000 0.84417  0.22563  0.78263  Biso   1.000  H
  C118     1.0000 0.85847  0.12583  0.06233  Biso   1.000  C
  C119     1.0000 0.88497  0.11533  0.15133  Biso   1.000  C
  H89      1.0000 0.91267  0.13643  0.17413  Biso   1.000  H
  C120     1.0000 0.87147  0.07413  0.20733  Biso   1.000  C
  H90      1.0000 0.88977  0.06783  0.26643  Biso   1.000  H
  C121     1.0000 0.83047  0.04303  0.17333  Biso   1.000  C
  C122     1.0000 0.80297  0.05173  0.08533  Biso   1.000  C
  H91      1.0000 0.77537  0.03053  0.06253  Biso   1.000  H
  C123     1.0000 0.81737  0.09323  0.03133  Biso   1.000  C
  H92      1.0000 0.79887  0.09923  0.97183  Biso   1.000  H
  C124     1.0000 0.81537  0.99833  0.23533  Biso   1.000  C
  C125     1.0000 0.83787  0.97903  0.18633  Biso   1.000  C
  H93      1.0000 0.86267  0.99343  0.12243  Biso   1.000  H
  C126     1.0000 0.82187  0.93583  0.23533  Biso   1.000  C
  H94      1.0000 0.83607  0.92153  0.20503  Biso   1.000  H
  C127     1.0000 0.78687  0.91693  0.32433  Biso   1.000  C
  H95      1.0000 0.77597  0.88883  0.35743  Biso   1.000  H
  C128     1.0000 0.76637  0.93793  0.36833  Biso   1.000  C
  H96      1.0000 0.74157  0.92373  0.43193  Biso   1.000  H
  N16      1.0000 0.78037  0.97863  0.32433  Biso   1.000  N
  Cd9      1.0000 0.57749  0.65252  0.17043  Biso   1.000  Cd
  N17      1.0000 0.43607  0.41323  0.76033  Biso   1.000  N
  C129     1.0000 0.41237  0.42173  0.66033  Biso   1.000  C
  H97      1.0000 0.38687  0.39913  0.62163  Biso   1.000  H
  C130     1.0000 0.42297  0.46253  0.60833  Biso   1.000  C
  H98      1.0000 0.40487  0.46663  0.53693  Biso   1.000  H
  C131     1.0000 0.46007  0.49633  0.66233  Biso   1.000  C
  C132     1.0000 0.48487  0.48783  0.76633  Biso   1.000  C
  H99      1.0000 0.51057  0.50983  0.80743  Biso   1.000  H
  C133     1.0000 0.47167  0.44603  0.81233  Biso   1.000  C
  H100     1.0000 0.48917  0.44103  0.88403  Biso   1.000  H
  C134     1.0000 0.47487  0.54083  0.60433  Biso   1.000  C
  C135     1.0000 0.44837  0.55133  0.51533  Biso   1.000  C
  H101     1.0000 0.42067  0.53023  0.49253  Biso   1.000  H
  C136     1.0000 0.46187  0.59253  0.45933  Biso   1.000  C
  H102     1.0000 0.44357  0.59883  0.40023  Biso   1.000  H
  C137     1.0000 0.50287  0.62363  0.49333  Biso   1.000  C
  C138     1.0000 0.53037  0.61493  0.58133  Biso   1.000  C
  H103     1.0000 0.55797  0.63613  0.60413  Biso   1.000  H
  C139     1.0000 0.51597  0.57343  0.63533  Biso   1.000  C
  H104     1.0000 0.53447  0.56743  0.69483  Biso   1.000  H
  C140     1.0000 0.51797  0.66833  0.43133  Biso   1.000  C
  C141     1.0000 0.49547  0.68763  0.48033  Biso   1.000  C
  H105     1.0000 0.47067  0.67323  0.54423  Biso   1.000  H
  C142     1.0000 0.51147  0.73083  0.43133  Biso   1.000  C
  H106     1.0000 0.49727  0.74513  0.46163  Biso   1.000  H
  C143     1.0000 0.54647  0.74973  0.34233  Biso   1.000  C
  H107     1.0000 0.55737  0.77783  0.30923  Biso   1.000  H
  C144     1.0000 0.56697  0.72873  0.29833  Biso   1.000  C
  H108     1.0000 0.59177  0.74293  0.23473  Biso   1.000  H
  N18      1.0000 0.55297  0.68803  0.34233  Biso   1.000  N
  Cd10     1.0000 0.42251  0.34748  0.82957  Biso   1.000  Cd
  N19      1.0000 0.56393  0.58677  0.23967  Biso   1.000  N
  C145     1.0000 0.58763  0.57827  0.33967  Biso   1.000  C
  H109     1.0000 0.61313  0.60087  0.37837  Biso   1.000  H
  C146     1.0000 0.57703  0.53747  0.39167  Biso   1.000  C
  H110     1.0000 0.59513  0.53337  0.46307  Biso   1.000  H
  C147     1.0000 0.53993  0.50367  0.33767  Biso   1.000  C
  C148     1.0000 0.51513  0.51217  0.23367  Biso   1.000  C
  H111     1.0000 0.48943  0.49017  0.19257  Biso   1.000  H
  C149     1.0000 0.52833  0.55397  0.18767  Biso   1.000  C
  H112     1.0000 0.51083  0.55897  0.11597  Biso   1.000  H
  C150     1.0000 0.52513  0.45917  0.39567  Biso   1.000  C
  C151     1.0000 0.55163  0.44867  0.48467  Biso   1.000  C
  H113     1.0000 0.57933  0.46977  0.50747  Biso   1.000  H
  C152     1.0000 0.53813  0.40747  0.54067  Biso   1.000  C
  H114     1.0000 0.55643  0.40117  0.59977  Biso   1.000  H
  C153     1.0000 0.49713  0.37637  0.50667  Biso   1.000  C
  C154     1.0000 0.46963  0.38507  0.41867  Biso   1.000  C
  H115     1.0000 0.44203  0.36387  0.39587  Biso   1.000  H
  C155     1.0000 0.48403  0.42657  0.36467  Biso   1.000  C
  H116     1.0000 0.46553  0.43257  0.30517  Biso   1.000  H
  C156     1.0000 0.48203  0.33167  0.56867  Biso   1.000  C
  C157     1.0000 0.50453  0.31237  0.51967  Biso   1.000  C
  H117     1.0000 0.52933  0.32677  0.45577  Biso   1.000  H
  C158     1.0000 0.48853  0.26917  0.56867  Biso   1.000  C
  H118     1.0000 0.50273  0.25487  0.53837  Biso   1.000  H
  C159     1.0000 0.45353  0.25027  0.65767  Biso   1.000  C
  H119     1.0000 0.44263  0.22217  0.69077  Biso   1.000  H
  C160     1.0000 0.43303  0.27127  0.70167  Biso   1.000  C
  H120     1.0000 0.40823  0.25707  0.76527  Biso   1.000  H
  N20      1.0000 0.44703  0.31197  0.65767  Biso   1.000  N
  Cd11     1.0000 0.24415  0.98586  0.50377  Biso   1.000  Cd
  N21      1.0000 0.10273  0.74657  0.09367  Biso   1.000  N
  C161     1.0000 0.07903  0.75507  0.99367  Biso   1.000  C
  H121     1.0000 0.05353  0.73247  0.95497  Biso   1.000  H
  C162     1.0000 0.08963  0.79587  0.94167  Biso   1.000  C
  H122     1.0000 0.07153  0.79997  0.87027  Biso   1.000  H
  C163     1.0000 0.12673  0.82967  0.99567  Biso   1.000  C
  C164     1.0000 0.15153  0.82117  0.09967  Biso   1.000  C
  H123     1.0000 0.17723  0.84317  0.14077  Biso   1.000  H
  C165     1.0000 0.13833  0.77937  0.14567  Biso   1.000  C
  H124     1.0000 0.15583  0.77437  0.21737  Biso   1.000  H
  C166     1.0000 0.14153  0.87417  0.93767  Biso   1.000  C
  C167     1.0000 0.11503  0.88467  0.84867  Biso   1.000  C
  H125     1.0000 0.08733  0.86357  0.82587  Biso   1.000  H
  C168     1.0000 0.12853  0.92587  0.79267  Biso   1.000  C
  H126     1.0000 0.11023  0.93217  0.73357  Biso   1.000  H
  C169     1.0000 0.16953  0.95697  0.82667  Biso   1.000  C
  C170     1.0000 0.19703  0.94827  0.91467  Biso   1.000  C
  H127     1.0000 0.22463  0.96947  0.93747  Biso   1.000  H
  C171     1.0000 0.18263  0.90677  0.96867  Biso   1.000  C
  H128     1.0000 0.20113  0.90077  0.02817  Biso   1.000  H
  C172     1.0000 0.18463  0.00167  0.76467  Biso   1.000  C
  C173     1.0000 0.16213  0.02097  0.81367  Biso   1.000  C
  H129     1.0000 0.13733  0.00657  0.87757  Biso   1.000  H
  C174     1.0000 0.17813  0.06417  0.76467  Biso   1.000  C
  H130     1.0000 0.16393  0.07847  0.79497  Biso   1.000  H
  C175     1.0000 0.21313  0.08307  0.67567  Biso   1.000  C
  H131     1.0000 0.22403  0.11117  0.64257  Biso   1.000  H
  C176     1.0000 0.23363  0.06207  0.63167  Biso   1.000  C
  H132     1.0000 0.25843  0.07627  0.56807  Biso   1.000  H
  N22      1.0000 0.21963  0.02137  0.67567  Biso   1.000  N
  Cd12     1.0000 0.08918  0.68081  0.16290  Biso   1.000  Cd
  N23      1.0000 0.23060  0.92010  0.57300  Biso   1.000  N
  C177     1.0000 0.25430  0.91160  0.67300  Biso   1.000  C
  H133     1.0000 0.27980  0.93420  0.71170  Biso   1.000  H
  C178     1.0000 0.24370  0.87080  0.72500  Biso   1.000  C
  H134     1.0000 0.26180  0.86670  0.79640  Biso   1.000  H
  C179     1.0000 0.20660  0.83700  0.67100  Biso   1.000  C
  C180     1.0000 0.18180  0.84550  0.56700  Biso   1.000  C
  H135     1.0000 0.15610  0.82350  0.52590  Biso   1.000  H
  C181     1.0000 0.19500  0.88730  0.52100  Biso   1.000  C
  H136     1.0000 0.17750  0.89230  0.44930  Biso   1.000  H
  C182     1.0000 0.19180  0.79250  0.72900  Biso   1.000  C
  C183     1.0000 0.21830  0.78200  0.81800  Biso   1.000  C
  H137     1.0000 0.24600  0.80310  0.84080  Biso   1.000  H
  C184     1.0000 0.20480  0.74080  0.87400  Biso   1.000  C
  H138     1.0000 0.22310  0.73450  0.93310  Biso   1.000  H
  C185     1.0000 0.16380  0.70970  0.84000  Biso   1.000  C
  C186     1.0000 0.13630  0.71840  0.75200  Biso   1.000  C
  H139     1.0000 0.10870  0.69720  0.72920  Biso   1.000  H
  C187     1.0000 0.15070  0.75990  0.69800  Biso   1.000  C
  H140     1.0000 0.13220  0.76590  0.63850  Biso   1.000  H
  C188     1.0000 0.14870  0.66500  0.90200  Biso   1.000  C
  C189     1.0000 0.17120  0.64570  0.85300  Biso   1.000  C
  H141     1.0000 0.19600  0.66010  0.78910  Biso   1.000  H
  C190     1.0000 0.15520  0.60250  0.90200  Biso   1.000  C
  H142     1.0000 0.16940  0.58820  0.87170  Biso   1.000  H
  C191     1.0000 0.12020  0.58360  0.99100  Biso   1.000  C
  H143     1.0000 0.10930  0.55550  0.02410  Biso   1.000  H
  C192     1.0000 0.09970  0.60460  0.03500  Biso   1.000  C
  H144     1.0000 0.07490  0.59040  0.09860  Biso   1.000  H
  N24      1.0000 0.11370  0.64530  0.99100  Biso   1.000  N
  Cd13     1.0000 0.68081  0.59163  0.83710  Biso   1.000  Cd
  N25      1.0000 0.92010  0.68950  0.42700  Biso   1.000  N
  C193     1.0000 0.91160  0.65730  0.32700  Biso   1.000  C
  H145     1.0000 0.93420  0.65440  0.28830  Biso   1.000  H
  C194     1.0000 0.87080  0.62710  0.27500  Biso   1.000  C
  H146     1.0000 0.86670  0.60490  0.20360  Biso   1.000  H
  C195     1.0000 0.83700  0.63040  0.32900  Biso   1.000  C
  C196     1.0000 0.84550  0.66370  0.43300  Biso   1.000  C
  H147     1.0000 0.82350  0.66740  0.47410  Biso   1.000  H
  C197     1.0000 0.88730  0.69230  0.47900  Biso   1.000  C
  H148     1.0000 0.89230  0.71480  0.55070  Biso   1.000  H
  C198     1.0000 0.79250  0.60070  0.27100  Biso   1.000  C
  C199     1.0000 0.78200  0.56370  0.18200  Biso   1.000  C
  H149     1.0000 0.80310  0.55710  0.15920  Biso   1.000  H
  C200     1.0000 0.74080  0.53600  0.12600  Biso   1.000  C
  H150     1.0000 0.73450  0.51140  0.06690  Biso   1.000  H
  C201     1.0000 0.70970  0.54590  0.16000  Biso   1.000  C
  C202     1.0000 0.71840  0.58210  0.24800  Biso   1.000  C
  H151     1.0000 0.69720  0.58850  0.27080  Biso   1.000  H
  C203     1.0000 0.75990  0.60920  0.30200  Biso   1.000  C
  H152     1.0000 0.76590  0.63370  0.36150  Biso   1.000  H
  C204     1.0000 0.66500  0.51630  0.09800  Biso   1.000  C
  C205     1.0000 0.64570  0.47450  0.14700  Biso   1.000  C
  H153     1.0000 0.66010  0.46410  0.21090  Biso   1.000  H
  C206     1.0000 0.60250  0.44730  0.09800  Biso   1.000  C
  H154     1.0000 0.58820  0.41880  0.12830  Biso   1.000  H
  C207     1.0000 0.58360  0.46340  0.00900  Biso   1.000  C
  H155     1.0000 0.55550  0.44620  0.97590  Biso   1.000  H
  C208     1.0000 0.60460  0.50490  0.96500  Biso   1.000  C
  H156     1.0000 0.59040  0.51550  0.90140  Biso   1.000  H
  N26      1.0000 0.64530  0.53160  0.00900  Biso   1.000  N
  Cd14     1.0000 0.98586  0.74170  0.49623  Biso   1.000  Cd
  N27      1.0000 0.74657  0.64383  0.90633  Biso   1.000  N
  C209     1.0000 0.75507  0.67603  0.00633  Biso   1.000  C
  H157     1.0000 0.73247  0.67893  0.04503  Biso   1.000  H
  C210     1.0000 0.79587  0.70623  0.05833  Biso   1.000  C
  H158     1.0000 0.79997  0.72843  0.12973  Biso   1.000  H
  C211     1.0000 0.82967  0.70293  0.00433  Biso   1.000  C
  C212     1.0000 0.82117  0.66963  0.90033  Biso   1.000  C
  H159     1.0000 0.84317  0.66593  0.85923  Biso   1.000  H
  C213     1.0000 0.77937  0.64103  0.85433  Biso   1.000  C
  H160     1.0000 0.77437  0.61853  0.78263  Biso   1.000  H
  C214     1.0000 0.87417  0.73263  0.06233  Biso   1.000  C
  C215     1.0000 0.88467  0.76963  0.15133  Biso   1.000  C
  H161     1.0000 0.86357  0.77623  0.17413  Biso   1.000  H
  C216     1.0000 0.92587  0.79733  0.20733  Biso   1.000  C
  H162     1.0000 0.93217  0.82193  0.26643  Biso   1.000  H
  C217     1.0000 0.95697  0.78743  0.17333  Biso   1.000  C
  C218     1.0000 0.94827  0.75123  0.08533  Biso   1.000  C
  H163     1.0000 0.96947  0.74483  0.06253  Biso   1.000  H
  C219     1.0000 0.90677  0.72413  0.03133  Biso   1.000  C
  H164     1.0000 0.90077  0.69963  0.97183  Biso   1.000  H
  C220     1.0000 0.00167  0.81703  0.23533  Biso   1.000  C
  C221     1.0000 0.02097  0.85883  0.18633  Biso   1.000  C
  H165     1.0000 0.00657  0.86923  0.12243  Biso   1.000  H
  C222     1.0000 0.06417  0.88603  0.23533  Biso   1.000  C
  H166     1.0000 0.07847  0.91453  0.20503  Biso   1.000  H
  C223     1.0000 0.08307  0.86993  0.32433  Biso   1.000  C
  H167     1.0000 0.11117  0.88713  0.35743  Biso   1.000  H
  C224     1.0000 0.06207  0.82843  0.36833  Biso   1.000  C
  H168     1.0000 0.07627  0.81783  0.43193  Biso   1.000  H
  N28      1.0000 0.02137  0.80173  0.32433  Biso   1.000  N
  Cd15     1.0000 0.34748  0.92496  0.17043  Biso   1.000  Cd
  N29      1.0000 0.58677  0.02283  0.76033  Biso   1.000  N
  C225     1.0000 0.57827  0.99063  0.66033  Biso   1.000  C
  H169     1.0000 0.60087  0.98773  0.62163  Biso   1.000  H
  C226     1.0000 0.53747  0.96043  0.60833  Biso   1.000  C
  H170     1.0000 0.53337  0.93823  0.53693  Biso   1.000  H
  C227     1.0000 0.50367  0.96373  0.66233  Biso   1.000  C
  C228     1.0000 0.51217  0.99703  0.76633  Biso   1.000  C
  H171     1.0000 0.49017  0.00073  0.80743  Biso   1.000  H
  C229     1.0000 0.55397  0.02563  0.81233  Biso   1.000  C
  H172     1.0000 0.55897  0.04813  0.88403  Biso   1.000  H
  C230     1.0000 0.45917  0.93403  0.60433  Biso   1.000  C
  C231     1.0000 0.44867  0.89703  0.51533  Biso   1.000  C
  H173     1.0000 0.46977  0.89043  0.49253  Biso   1.000  H
  C232     1.0000 0.40747  0.86933  0.45933  Biso   1.000  C
  H174     1.0000 0.40117  0.84473  0.40023  Biso   1.000  H
  C233     1.0000 0.37637  0.87923  0.49333  Biso   1.000  C
  C234     1.0000 0.38507  0.91543  0.58133  Biso   1.000  C
  H175     1.0000 0.36387  0.92183  0.60413  Biso   1.000  H
  C235     1.0000 0.42657  0.94253  0.63533  Biso   1.000  C
  H176     1.0000 0.43257  0.96703  0.69483  Biso   1.000  H
  C236     1.0000 0.33167  0.84963  0.43133  Biso   1.000  C
  C237     1.0000 0.31237  0.80783  0.48033  Biso   1.000  C
  H177     1.0000 0.32677  0.79743  0.54423  Biso   1.000  H
  C238     1.0000 0.26917  0.78063  0.43133  Biso   1.000  C
  H178     1.0000 0.25487  0.75213  0.46163  Biso   1.000  H
  C239     1.0000 0.25027  0.79673  0.34233  Biso   1.000  C
  H179     1.0000 0.22217  0.77953  0.30923  Biso   1.000  H
  C240     1.0000 0.27127  0.83823  0.29833  Biso   1.000  C
  H180     1.0000 0.25707  0.84883  0.23473  Biso   1.000  H
  N30      1.0000 0.31197  0.86493  0.34233  Biso   1.000  N
  Cd16     1.0000 0.65252  0.07504  0.82957  Biso   1.000  Cd
  N31      1.0000 0.41323  0.97717  0.23967  Biso   1.000  N
  C241     1.0000 0.42173  0.00937  0.33967  Biso   1.000  C
  H181     1.0000 0.39913  0.01227  0.37837  Biso   1.000  H
  C242     1.0000 0.46253  0.03957  0.39167  Biso   1.000  C
  H182     1.0000 0.46663  0.06177  0.46307  Biso   1.000  H
  C243     1.0000 0.49633  0.03627  0.33767  Biso   1.000  C
  C244     1.0000 0.48783  0.00297  0.23367  Biso   1.000  C
  H183     1.0000 0.50983  0.99927  0.19257  Biso   1.000  H
  C245     1.0000 0.44603  0.97437  0.18767  Biso   1.000  C
  H184     1.0000 0.44103  0.95187  0.11597  Biso   1.000  H
  C246     1.0000 0.54083  0.06597  0.39567  Biso   1.000  C
  C247     1.0000 0.55133  0.10297  0.48467  Biso   1.000  C
  H185     1.0000 0.53023  0.10957  0.50747  Biso   1.000  H
  C248     1.0000 0.59253  0.13067  0.54067  Biso   1.000  C
  H186     1.0000 0.59883  0.15527  0.59977  Biso   1.000  H
  C249     1.0000 0.62363  0.12077  0.50667  Biso   1.000  C
  C250     1.0000 0.61493  0.08457  0.41867  Biso   1.000  C
  H187     1.0000 0.63613  0.07817  0.39587  Biso   1.000  H
  C251     1.0000 0.57343  0.05747  0.36467  Biso   1.000  C
  H188     1.0000 0.56743  0.03297  0.30517  Biso   1.000  H
  C252     1.0000 0.66833  0.15037  0.56867  Biso   1.000  C
  C253     1.0000 0.68763  0.19217  0.51967  Biso   1.000  C
  H189     1.0000 0.67323  0.20257  0.45577  Biso   1.000  H
  C254     1.0000 0.73083  0.21937  0.56867  Biso   1.000  C
  H190     1.0000 0.74513  0.24787  0.53837  Biso   1.000  H
  C255     1.0000 0.74973  0.20327  0.65767  Biso   1.000  C
  H191     1.0000 0.77783  0.22047  0.69077  Biso   1.000  H
  C256     1.0000 0.72873  0.16177  0.70167  Biso   1.000  C
  H192     1.0000 0.74293  0.15117  0.76527  Biso   1.000  H
  N32      1.0000 0.68803  0.13507  0.65767  Biso   1.000  N
  Cd17     1.0000 0.01414  0.25830  0.50377  Biso   1.000  Cd
  N33      1.0000 0.25343  0.35617  0.09367  Biso   1.000  N
  C257     1.0000 0.24493  0.32397  0.99367  Biso   1.000  C
  H193     1.0000 0.26753  0.32107  0.95497  Biso   1.000  H
  C258     1.0000 0.20413  0.29377  0.94167  Biso   1.000  C
  H194     1.0000 0.20003  0.27157  0.87027  Biso   1.000  H
  C259     1.0000 0.17033  0.29707  0.99567  Biso   1.000  C
  C260     1.0000 0.17883  0.33037  0.09967  Biso   1.000  C
  H195     1.0000 0.15683  0.33407  0.14077  Biso   1.000  H
  C261     1.0000 0.22063  0.35897  0.14567  Biso   1.000  C
  H196     1.0000 0.22563  0.38147  0.21737  Biso   1.000  H
  C262     1.0000 0.12583  0.26737  0.93767  Biso   1.000  C
  C263     1.0000 0.11533  0.23037  0.84867  Biso   1.000  C
  H197     1.0000 0.13643  0.22377  0.82587  Biso   1.000  H
  C264     1.0000 0.07413  0.20267  0.79267  Biso   1.000  C
  H198     1.0000 0.06783  0.17807  0.73357  Biso   1.000  H
  C265     1.0000 0.04303  0.21257  0.82667  Biso   1.000  C
  C266     1.0000 0.05173  0.24877  0.91467  Biso   1.000  C
  H199     1.0000 0.03053  0.25517  0.93747  Biso   1.000  H
  C267     1.0000 0.09323  0.27587  0.96867  Biso   1.000  C
  H200     1.0000 0.09923  0.30037  0.02817  Biso   1.000  H
  C268     1.0000 0.99833  0.18297  0.76467  Biso   1.000  C
  C269     1.0000 0.97903  0.14117  0.81367  Biso   1.000  C
  H201     1.0000 0.99343  0.13077  0.87757  Biso   1.000  H
  C270     1.0000 0.93583  0.11397  0.76467  Biso   1.000  C
  H202     1.0000 0.92153  0.08547  0.79497  Biso   1.000  H
  C271     1.0000 0.91693  0.13007  0.67567  Biso   1.000  C
  H203     1.0000 0.88883  0.11287  0.64257  Biso   1.000  H
  C272     1.0000 0.93793  0.17157  0.63167  Biso   1.000  C
  H204     1.0000 0.92373  0.18217  0.56807  Biso   1.000  H
  N34      1.0000 0.97863  0.19827  0.67567  Biso   1.000  N
  Cd18     1.0000 0.31919  0.40837  0.16290  Biso   1.000  Cd
  N35      1.0000 0.07990  0.31050  0.57300  Biso   1.000  N
  C273     1.0000 0.08840  0.34270  0.67300  Biso   1.000  C
  H205     1.0000 0.06580  0.34560  0.71170  Biso   1.000  H
  C274     1.0000 0.12920  0.37290  0.72500  Biso   1.000  C
  H206     1.0000 0.13330  0.39510  0.79640  Biso   1.000  H
  C275     1.0000 0.16300  0.36960  0.67100  Biso   1.000  C
  C276     1.0000 0.15450  0.33630  0.56700  Biso   1.000  C
  H207     1.0000 0.17650  0.33260  0.52590  Biso   1.000  H
  C277     1.0000 0.11270  0.30770  0.52100  Biso   1.000  C
  H208     1.0000 0.10770  0.28520  0.44930  Biso   1.000  H
  C278     1.0000 0.20750  0.39930  0.72900  Biso   1.000  C
  C279     1.0000 0.21800  0.43630  0.81800  Biso   1.000  C
  H209     1.0000 0.19690  0.44290  0.84080  Biso   1.000  H
  C280     1.0000 0.25920  0.46400  0.87400  Biso   1.000  C
  H210     1.0000 0.26550  0.48860  0.93310  Biso   1.000  H
  C281     1.0000 0.29030  0.45410  0.84000  Biso   1.000  C
  C282     1.0000 0.28160  0.41790  0.75200  Biso   1.000  C
  H211     1.0000 0.30280  0.41150  0.72920  Biso   1.000  H
  C283     1.0000 0.24010  0.39080  0.69800  Biso   1.000  C
  H212     1.0000 0.23410  0.36630  0.63850  Biso   1.000  H
  C284     1.0000 0.33500  0.48370  0.90200  Biso   1.000  C
  C285     1.0000 0.35430  0.52550  0.85300  Biso   1.000  C
  H213     1.0000 0.33990  0.53590  0.78910  Biso   1.000  H
  C286     1.0000 0.39750  0.55270  0.90200  Biso   1.000  C
  H214     1.0000 0.41180  0.58120  0.87170  Biso   1.000  H
  C287     1.0000 0.41640  0.53660  0.99100  Biso   1.000  C
  H215     1.0000 0.44450  0.55380  0.02410  Biso   1.000  H
  C288     1.0000 0.39540  0.49510  0.03500  Biso   1.000  C
  H216     1.0000 0.40960  0.48450  0.09860  Biso   1.000  H
  N36      1.0000 0.35470  0.46840  0.99100  Biso   1.000  N
