data_image0
_cell_length_a       36.475
_cell_length_b       36.475
_cell_length_c       7.57
_cell_angle_alpha    90
_cell_angle_beta     90
_cell_angle_gamma    120

_symmetry_space_group_name_H-M    "P 1"
_symmetry_int_tables_number       1

loop_
  _symmetry_equiv_pos_as_xyz
  'x, y, z'

loop_
  _atom_site_label
  _atom_site_occupancy
  _atom_site_fract_x
  _atom_site_fract_y
  _atom_site_fract_z
  _atom_site_thermal_displace_type
  _atom_site_B_iso_or_equiv
  _atom_site_type_symbol
  Cd1      1.0000 0.25808  0.01367  0.49479  Biso   1.000  Cd
  C1       1.0000 0.41810  0.28090  0.24820  Biso   1.000  C
  H1       1.0000 0.41130  0.30250  0.27050  Biso   1.000  H
  C2       1.0000 0.45520  0.29090  0.16030  Biso   1.000  C
  C3       1.0000 0.39060  0.23980  0.30400  Biso   1.000  C
  H2       1.0000 0.36540  0.23370  0.36480  Biso   1.000  H
  C4       1.0000 0.36970  0.16360  0.33070  Biso   1.000  C
  C5       1.0000 0.39950  0.20760  0.27260  Biso   1.000  C
  C6       1.0000 0.33520  0.15400  0.43730  Biso   1.000  C
  H3       1.0000 0.33090  0.17600  0.48030  Biso   1.000  H
  N1       1.0000 0.31037  0.07952  0.42590  Biso   1.000  N
  C7       1.0000 0.43700  0.21740  0.18700  Biso   1.000  C
  H4       1.0000 0.44360  0.19570  0.16570  Biso   1.000  H
  C8       1.0000 0.46510  0.25870  0.13170  Biso   1.000  C
  H5       1.0000 0.49080  0.26500  0.07490  Biso   1.000  H
  C9       1.0000 0.34340  0.08840  0.32450  Biso   1.000  C
  H6       1.0000 0.34670  0.06560  0.28370  Biso   1.000  H
  C10      1.0000 0.30670  0.11210  0.48200  Biso   1.000  C
  H7       1.0000 0.28340  0.10650  0.55620  Biso   1.000  H
  C11      1.0000 0.48510  0.33520  0.10540  Biso   1.000  C
  N2       1.0000 0.46820  0.35494  0.01140  Biso   1.000  N
  C12      1.0000 0.52710  0.35520  0.14890  Biso   1.000  C
  H8       1.0000 0.53770  0.34020  0.21420  Biso   1.000  H
  C13      1.0000 0.55420  0.39650  0.09930  Biso   1.000  C
  H9       1.0000 0.58340  0.41060  0.12990  Biso   1.000  H
  C14      1.0000 0.53730  0.41700  0.00290  Biso   1.000  C
  H10      1.0000 0.55490  0.44530  0.96480  Biso   1.000  H
  C15      1.0000 0.49470  0.39570  0.96300  Biso   1.000  C
  H11      1.0000 0.48350  0.41030  0.89900  Biso   1.000  H
  C16      1.0000 0.37330  0.12920  0.27490  Biso   1.000  C
  H12      1.0000 0.39640  0.13360  0.20240  Biso   1.000  H
  Cd2      1.0000 0.40859  0.31966  0.83854  Biso   1.000  Cd
  C17      1.0000 0.24857  0.05243  0.08513  Biso   1.000  C
  H13      1.0000 0.25537  0.03083  0.06283  Biso   1.000  H
  C18      1.0000 0.21147  0.04243  0.17303  Biso   1.000  C
  C19      1.0000 0.27607  0.09353  0.02933  Biso   1.000  C
  H14      1.0000 0.30127  0.09963  0.96853  Biso   1.000  H
  C20      1.0000 0.29697  0.16973  0.00263  Biso   1.000  C
  C21      1.0000 0.26717  0.12573  0.06073  Biso   1.000  C
  C22      1.0000 0.33147  0.17933  0.89603  Biso   1.000  C
  H15      1.0000 0.33577  0.15733  0.85303  Biso   1.000  H
  N3       1.0000 0.35630  0.25381  0.90743  Biso   1.000  N
  C23      1.0000 0.22967  0.11593  0.14633  Biso   1.000  C
  H16      1.0000 0.22307  0.13763  0.16763  Biso   1.000  H
  C24      1.0000 0.20157  0.07463  0.20163  Biso   1.000  C
  H17      1.0000 0.17587  0.06833  0.25843  Biso   1.000  H
  C25      1.0000 0.32327  0.24493  0.00883  Biso   1.000  C
  H18      1.0000 0.31997  0.26773  0.04963  Biso   1.000  H
  C26      1.0000 0.35997  0.22123  0.85133  Biso   1.000  C
  H19      1.0000 0.38327  0.22683  0.77713  Biso   1.000  H
  C27      1.0000 0.18157  0.99813  0.22793  Biso   1.000  C
  N4       1.0000 0.19847  0.97839  0.32193  Biso   1.000  N
  C28      1.0000 0.13957  0.97813  0.18443  Biso   1.000  C
  H20      1.0000 0.12897  0.99313  0.11913  Biso   1.000  H
  C29      1.0000 0.11247  0.93683  0.23403  Biso   1.000  C
  H21      1.0000 0.08327  0.92273  0.20343  Biso   1.000  H
  C30      1.0000 0.12937  0.91633  0.33043  Biso   1.000  C
  H22      1.0000 0.11177  0.88803  0.36853  Biso   1.000  H
  C31      1.0000 0.17197  0.93763  0.37033  Biso   1.000  C
  H23      1.0000 0.18317  0.92303  0.43433  Biso   1.000  H
  C32      1.0000 0.29337  0.20413  0.05843  Biso   1.000  C
  H24      1.0000 0.27027  0.19973  0.13093  Biso   1.000  H
  Cd3      1.0000 0.92475  0.34700  0.82812  Biso   1.000  Cd
  C33      1.0000 0.08477  0.61423  0.58153  Biso   1.000  C
  H25      1.0000 0.07797  0.63583  0.60383  Biso   1.000  H
  C34      1.0000 0.12187  0.62423  0.49363  Biso   1.000  C
  C35      1.0000 0.05727  0.57313  0.63733  Biso   1.000  C
  H26      1.0000 0.03207  0.56703  0.69813  Biso   1.000  H
  C36      1.0000 0.03637  0.49693  0.66403  Biso   1.000  C
  C37      1.0000 0.06617  0.54093  0.60593  Biso   1.000  C
  C38      1.0000 0.00187  0.48733  0.77063  Biso   1.000  C
  H27      1.0000 0.99757  0.50933  0.81363  Biso   1.000  H
  N5       1.0000 0.97704  0.41285  0.75923  Biso   1.000  N
  C39      1.0000 0.10367  0.55073  0.52033  Biso   1.000  C
  H28      1.0000 0.11027  0.52903  0.49903  Biso   1.000  H
  C40      1.0000 0.13177  0.59203  0.46503  Biso   1.000  C
  H29      1.0000 0.15747  0.59833  0.40823  Biso   1.000  H
  C41      1.0000 0.01007  0.42173  0.65783  Biso   1.000  C
  H30      1.0000 0.01337  0.39893  0.61703  Biso   1.000  H
  C42      1.0000 0.97337  0.44543  0.81533  Biso   1.000  C
  H31      1.0000 0.95007  0.43983  0.88953  Biso   1.000  H
  C43      1.0000 0.15177  0.66853  0.43873  Biso   1.000  C
  N6       1.0000 0.13487  0.68827  0.34473  Biso   1.000  N
  C44      1.0000 0.19377  0.68853  0.48223  Biso   1.000  C
  H32      1.0000 0.20437  0.67353  0.54753  Biso   1.000  H
  C45      1.0000 0.22087  0.72983  0.43263  Biso   1.000  C
  H33      1.0000 0.25007  0.74393  0.46323  Biso   1.000  H
  C46      1.0000 0.20397  0.75033  0.33623  Biso   1.000  C
  H34      1.0000 0.22157  0.77863  0.29813  Biso   1.000  H
  C47      1.0000 0.16137  0.72903  0.29633  Biso   1.000  C
  H35      1.0000 0.15017  0.74363  0.23233  Biso   1.000  H
  C48      1.0000 0.03997  0.46253  0.60823  Biso   1.000  C
  H36      1.0000 0.06307  0.46693  0.53573  Biso   1.000  H
  Cd4      1.0000 0.07525  0.65300  0.17188  Biso   1.000  Cd
  C49      1.0000 0.91523  0.38577  0.41847  Biso   1.000  C
  H37      1.0000 0.92203  0.36417  0.39617  Biso   1.000  H
  C50      1.0000 0.87813  0.37577  0.50637  Biso   1.000  C
  C51      1.0000 0.94273  0.42687  0.36267  Biso   1.000  C
  H38      1.0000 0.96793  0.43297  0.30187  Biso   1.000  H
  C52      1.0000 0.96363  0.50307  0.33597  Biso   1.000  C
  C53      1.0000 0.93383  0.45907  0.39407  Biso   1.000  C
  C54      1.0000 0.99813  0.51267  0.22937  Biso   1.000  C
  H39      1.0000 0.00243  0.49067  0.18637  Biso   1.000  H
  N7       1.0000 0.02296  0.58715  0.24077  Biso   1.000  N
  C55      1.0000 0.89633  0.44927  0.47967  Biso   1.000  C
  H40      1.0000 0.88973  0.47097  0.50097  Biso   1.000  H
  C56      1.0000 0.86823  0.40797  0.53497  Biso   1.000  C
  H41      1.0000 0.84253  0.40167  0.59177  Biso   1.000  H
  C57      1.0000 0.98993  0.57827  0.34217  Biso   1.000  C
  H42      1.0000 0.98663  0.60107  0.38297  Biso   1.000  H
  C58      1.0000 0.02663  0.55457  0.18467  Biso   1.000  C
  H43      1.0000 0.04993  0.56017  0.11047  Biso   1.000  H
  C59      1.0000 0.84823  0.33147  0.56127  Biso   1.000  C
  N8       1.0000 0.86513  0.31173  0.65527  Biso   1.000  N
  C60      1.0000 0.80623  0.31147  0.51777  Biso   1.000  C
  H44      1.0000 0.79563  0.32647  0.45247  Biso   1.000  H
  C61      1.0000 0.77913  0.27017  0.56737  Biso   1.000  C
  H45      1.0000 0.74993  0.25607  0.53677  Biso   1.000  H
  C62      1.0000 0.79603  0.24967  0.66377  Biso   1.000  C
  H46      1.0000 0.77843  0.22137  0.70187  Biso   1.000  H
  C63      1.0000 0.83863  0.27097  0.70367  Biso   1.000  C
  H47      1.0000 0.84983  0.25637  0.76767  Biso   1.000  H
  C64      1.0000 0.96003  0.53747  0.39177  Biso   1.000  C
  H48      1.0000 0.93693  0.53307  0.46427  Biso   1.000  H
  Cd5      1.0000 0.59141  0.68034  0.16146  Biso   1.000  Cd
  C65      1.0000 0.75143  0.94757  0.91487  Biso   1.000  C
  H49      1.0000 0.74463  0.96917  0.93717  Biso   1.000  H
  C66      1.0000 0.78853  0.95757  0.82697  Biso   1.000  C
  C67      1.0000 0.72393  0.90647  0.97067  Biso   1.000  C
  H50      1.0000 0.69873  0.90037  0.03147  Biso   1.000  H
  C68      1.0000 0.70303  0.83027  0.99737  Biso   1.000  C
  C69      1.0000 0.73283  0.87427  0.93927  Biso   1.000  C
  C70      1.0000 0.66853  0.82067  0.10397  Biso   1.000  C
  H51      1.0000 0.66423  0.84267  0.14697  Biso   1.000  H
  N9       1.0000 0.64370  0.74619  0.09257  Biso   1.000  N
  C71      1.0000 0.77033  0.88407  0.85367  Biso   1.000  C
  H52      1.0000 0.77693  0.86237  0.83237  Biso   1.000  H
  C72      1.0000 0.79843  0.92537  0.79837  Biso   1.000  C
  H53      1.0000 0.82413  0.93167  0.74157  Biso   1.000  H
  C73      1.0000 0.67673  0.75507  0.99117  Biso   1.000  C
  H54      1.0000 0.68003  0.73227  0.95037  Biso   1.000  H
  C74      1.0000 0.64003  0.77877  0.14867  Biso   1.000  C
  H55      1.0000 0.61673  0.77317  0.22287  Biso   1.000  H
  C75      1.0000 0.81843  0.00187  0.77207  Biso   1.000  C
  N10      1.0000 0.80153  0.02161  0.67807  Biso   1.000  N
  C76      1.0000 0.86043  0.02187  0.81557  Biso   1.000  C
  H56      1.0000 0.87103  0.00687  0.88087  Biso   1.000  H
  C77      1.0000 0.88753  0.06317  0.76597  Biso   1.000  C
  H57      1.0000 0.91673  0.07727  0.79657  Biso   1.000  H
  C78      1.0000 0.87063  0.08367  0.66957  Biso   1.000  C
  H58      1.0000 0.88823  0.11197  0.63147  Biso   1.000  H
  C79      1.0000 0.82803  0.06237  0.62967  Biso   1.000  C
  H59      1.0000 0.81683  0.07697  0.56567  Biso   1.000  H
  C80      1.0000 0.70663  0.79587  0.94157  Biso   1.000  C
  H60      1.0000 0.72973  0.80027  0.86907  Biso   1.000  H
  Cd6      1.0000 0.74192  0.98633  0.50521  Biso   1.000  Cd
  C81      1.0000 0.58190  0.71910  0.75180  Biso   1.000  C
  H61      1.0000 0.58870  0.69750  0.72950  Biso   1.000  H
  C82      1.0000 0.54480  0.70910  0.83970  Biso   1.000  C
  C83      1.0000 0.60940  0.76020  0.69600  Biso   1.000  C
  H62      1.0000 0.63460  0.76630  0.63520  Biso   1.000  H
  C84      1.0000 0.63030  0.83640  0.66930  Biso   1.000  C
  C85      1.0000 0.60050  0.79240  0.72740  Biso   1.000  C
  C86      1.0000 0.66480  0.84600  0.56270  Biso   1.000  C
  H63      1.0000 0.66910  0.82400  0.51970  Biso   1.000  H
  N11      1.0000 0.68963  0.92048  0.57410  Biso   1.000  N
  C87      1.0000 0.56300  0.78260  0.81300  Biso   1.000  C
  H64      1.0000 0.55640  0.80430  0.83430  Biso   1.000  H
  C88      1.0000 0.53490  0.74130  0.86830  Biso   1.000  C
  H65      1.0000 0.50920  0.73500  0.92510  Biso   1.000  H
  C89      1.0000 0.65660  0.91160  0.67550  Biso   1.000  C
  H66      1.0000 0.65330  0.93440  0.71630  Biso   1.000  H
  C90      1.0000 0.69330  0.88790  0.51800  Biso   1.000  C
  H67      1.0000 0.71660  0.89350  0.44380  Biso   1.000  H
  C91      1.0000 0.51490  0.66480  0.89460  Biso   1.000  C
  N12      1.0000 0.53180  0.64506  0.98860  Biso   1.000  N
  C92      1.0000 0.47290  0.64480  0.85110  Biso   1.000  C
  H68      1.0000 0.46230  0.65980  0.78580  Biso   1.000  H
  C93      1.0000 0.44580  0.60350  0.90070  Biso   1.000  C
  H69      1.0000 0.41660  0.58940  0.87010  Biso   1.000  H
  C94      1.0000 0.46270  0.58300  0.99710  Biso   1.000  C
  H70      1.0000 0.44510  0.55470  0.03520  Biso   1.000  H
  C95      1.0000 0.50530  0.60430  0.03700  Biso   1.000  C
  H71      1.0000 0.51650  0.58970  0.10100  Biso   1.000  H
  C96      1.0000 0.62670  0.87080  0.72510  Biso   1.000  C
  H72      1.0000 0.60360  0.86640  0.79760  Biso   1.000  H
  Cd7      1.0000 0.98633  0.24441  0.49479  Biso   1.000  Cd
  C97      1.0000 0.71910  0.13720  0.24820  Biso   1.000  C
  H73      1.0000 0.69750  0.10880  0.27050  Biso   1.000  H
  C98      1.0000 0.70910  0.16430  0.16030  Biso   1.000  C
  C99      1.0000 0.76020  0.15080  0.30400  Biso   1.000  C
  H74      1.0000 0.76630  0.13170  0.36480  Biso   1.000  H
  C100     1.0000 0.83640  0.20610  0.33070  Biso   1.000  C
  C101     1.0000 0.79240  0.19190  0.27260  Biso   1.000  C
  C102     1.0000 0.84600  0.18120  0.43730  Biso   1.000  C
  H75      1.0000 0.82400  0.15490  0.48030  Biso   1.000  H
  N13      1.0000 0.92048  0.23085  0.42590  Biso   1.000  N
  C103     1.0000 0.78260  0.21960  0.18700  Biso   1.000  C
  H76      1.0000 0.80430  0.24790  0.16570  Biso   1.000  H
  C104     1.0000 0.74130  0.20640  0.13170  Biso   1.000  C
  H77      1.0000 0.73500  0.22580  0.07490  Biso   1.000  H
  C105     1.0000 0.91160  0.25500  0.32450  Biso   1.000  C
  H78      1.0000 0.93440  0.28110  0.28370  Biso   1.000  H
  C106     1.0000 0.88790  0.19460  0.48200  Biso   1.000  C
  H79      1.0000 0.89350  0.17690  0.55620  Biso   1.000  H
  C107     1.0000 0.66480  0.14990  0.10540  Biso   1.000  C
  N14      1.0000 0.64506  0.11326  0.01140  Biso   1.000  N
  C108     1.0000 0.64480  0.17190  0.14890  Biso   1.000  C
  H80      1.0000 0.65980  0.19750  0.21420  Biso   1.000  H
  C109     1.0000 0.60350  0.15770  0.09930  Biso   1.000  C
  H81      1.0000 0.58940  0.17280  0.12990  Biso   1.000  H
  C110     1.0000 0.58300  0.12030  0.00290  Biso   1.000  C
  H82      1.0000 0.55470  0.10960  0.96480  Biso   1.000  H
  C111     1.0000 0.60430  0.09900  0.96300  Biso   1.000  C
  H83      1.0000 0.58970  0.07320  0.89900  Biso   1.000  H
  C112     1.0000 0.87080  0.24410  0.27490  Biso   1.000  C
  H84      1.0000 0.86640  0.26280  0.20240  Biso   1.000  H
  Cd8      1.0000 0.68034  0.08892  0.83854  Biso   1.000  Cd
  C113     1.0000 0.94757  0.19613  0.08513  Biso   1.000  C
  H85      1.0000 0.96917  0.22453  0.06283  Biso   1.000  H
  C114     1.0000 0.95757  0.16903  0.17303  Biso   1.000  C
  C115     1.0000 0.90647  0.18253  0.02933  Biso   1.000  C
  H86      1.0000 0.90037  0.20163  0.96853  Biso   1.000  H
  C116     1.0000 0.83027  0.12723  0.00263  Biso   1.000  C
  C117     1.0000 0.87427  0.14143  0.06073  Biso   1.000  C
  C118     1.0000 0.82067  0.15213  0.89603  Biso   1.000  C
  H87      1.0000 0.84267  0.17843  0.85303  Biso   1.000  H
  N15      1.0000 0.74619  0.10248  0.90743  Biso   1.000  N
  C119     1.0000 0.88407  0.11373  0.14633  Biso   1.000  C
  H88      1.0000 0.86237  0.08543  0.16763  Biso   1.000  H
  C120     1.0000 0.92537  0.12693  0.20163  Biso   1.000  C
  H89      1.0000 0.93167  0.10753  0.25843  Biso   1.000  H
  C121     1.0000 0.75507  0.07833  0.00883  Biso   1.000  C
  H90      1.0000 0.73227  0.05223  0.04963  Biso   1.000  H
  C122     1.0000 0.77877  0.13873  0.85133  Biso   1.000  C
  H91      1.0000 0.77317  0.15643  0.77713  Biso   1.000  H
  C123     1.0000 0.00187  0.18343  0.22793  Biso   1.000  C
  N16      1.0000 0.02161  0.22007  0.32193  Biso   1.000  N
  C124     1.0000 0.02187  0.16143  0.18443  Biso   1.000  C
  H92      1.0000 0.00687  0.13583  0.11913  Biso   1.000  H
  C125     1.0000 0.06317  0.17563  0.23403  Biso   1.000  C
  H93      1.0000 0.07727  0.16053  0.20343  Biso   1.000  H
  C126     1.0000 0.08367  0.21303  0.33043  Biso   1.000  C
  H94      1.0000 0.11197  0.22373  0.36853  Biso   1.000  H
  C127     1.0000 0.06237  0.23433  0.37033  Biso   1.000  C
  H95      1.0000 0.07697  0.26013  0.43433  Biso   1.000  H
  C128     1.0000 0.79587  0.08923  0.05843  Biso   1.000  C
  H96      1.0000 0.80027  0.07053  0.13093  Biso   1.000  H
  Cd9      1.0000 0.65300  0.57774  0.82812  Biso   1.000  Cd
  C129     1.0000 0.38577  0.47053  0.58153  Biso   1.000  C
  H97      1.0000 0.36417  0.44213  0.60383  Biso   1.000  H
  C130     1.0000 0.37577  0.49763  0.49363  Biso   1.000  C
  C131     1.0000 0.42687  0.48413  0.63733  Biso   1.000  C
  H98      1.0000 0.43297  0.46503  0.69813  Biso   1.000  H
  C132     1.0000 0.50307  0.53943  0.66403  Biso   1.000  C
  C133     1.0000 0.45907  0.52523  0.60593  Biso   1.000  C
  C134     1.0000 0.51267  0.51453  0.77063  Biso   1.000  C
  H99      1.0000 0.49067  0.48823  0.81363  Biso   1.000  H
  N17      1.0000 0.58715  0.56418  0.75923  Biso   1.000  N
  C135     1.0000 0.44927  0.55293  0.52033  Biso   1.000  C
  H100     1.0000 0.47097  0.58123  0.49903  Biso   1.000  H
  C136     1.0000 0.40797  0.53973  0.46503  Biso   1.000  C
  H101     1.0000 0.40167  0.55913  0.40823  Biso   1.000  H
  C137     1.0000 0.57827  0.58833  0.65783  Biso   1.000  C
  H102     1.0000 0.60107  0.61443  0.61703  Biso   1.000  H
  C138     1.0000 0.55457  0.52793  0.81533  Biso   1.000  C
  H103     1.0000 0.56017  0.51023  0.88953  Biso   1.000  H
  C139     1.0000 0.33147  0.48323  0.43873  Biso   1.000  C
  N18      1.0000 0.31173  0.44659  0.34473  Biso   1.000  N
  C140     1.0000 0.31147  0.50523  0.48223  Biso   1.000  C
  H104     1.0000 0.32647  0.53083  0.54753  Biso   1.000  H
  C141     1.0000 0.27017  0.49103  0.43263  Biso   1.000  C
  H105     1.0000 0.25607  0.50613  0.46323  Biso   1.000  H
  C142     1.0000 0.24967  0.45363  0.33623  Biso   1.000  C
  H106     1.0000 0.22137  0.44293  0.29813  Biso   1.000  H
  C143     1.0000 0.27097  0.43233  0.29633  Biso   1.000  C
  H107     1.0000 0.25637  0.40653  0.23233  Biso   1.000  H
  C144     1.0000 0.53747  0.57743  0.60823  Biso   1.000  C
  H108     1.0000 0.53307  0.59613  0.53573  Biso   1.000  H
  Cd10     1.0000 0.34700  0.42226  0.17188  Biso   1.000  Cd
  C145     1.0000 0.61423  0.52947  0.41847  Biso   1.000  C
  H109     1.0000 0.63583  0.55787  0.39617  Biso   1.000  H
  C146     1.0000 0.62423  0.50237  0.50637  Biso   1.000  C
  C147     1.0000 0.57313  0.51587  0.36267  Biso   1.000  C
  H110     1.0000 0.56703  0.53497  0.30187  Biso   1.000  H
  C148     1.0000 0.49693  0.46057  0.33597  Biso   1.000  C
  C149     1.0000 0.54093  0.47477  0.39407  Biso   1.000  C
  C150     1.0000 0.48733  0.48547  0.22937  Biso   1.000  C
  H111     1.0000 0.50933  0.51177  0.18637  Biso   1.000  H
  N19      1.0000 0.41285  0.43582  0.24077  Biso   1.000  N
  C151     1.0000 0.55073  0.44707  0.47967  Biso   1.000  C
  H112     1.0000 0.52903  0.41877  0.50097  Biso   1.000  H
  C152     1.0000 0.59203  0.46027  0.53497  Biso   1.000  C
  H113     1.0000 0.59833  0.44087  0.59177  Biso   1.000  H
  C153     1.0000 0.42173  0.41167  0.34217  Biso   1.000  C
  H114     1.0000 0.39893  0.38557  0.38297  Biso   1.000  H
  C154     1.0000 0.44543  0.47207  0.18467  Biso   1.000  C
  H115     1.0000 0.43983  0.48977  0.11047  Biso   1.000  H
  C155     1.0000 0.66853  0.51677  0.56127  Biso   1.000  C
  N20      1.0000 0.68827  0.55341  0.65527  Biso   1.000  N
  C156     1.0000 0.68853  0.49477  0.51777  Biso   1.000  C
  H116     1.0000 0.67353  0.46917  0.45247  Biso   1.000  H
  C157     1.0000 0.72983  0.50897  0.56737  Biso   1.000  C
  H117     1.0000 0.74393  0.49387  0.53677  Biso   1.000  H
  C158     1.0000 0.75033  0.54637  0.66377  Biso   1.000  C
  H118     1.0000 0.77863  0.55707  0.70187  Biso   1.000  H
  C159     1.0000 0.72903  0.56767  0.70367  Biso   1.000  C
  H119     1.0000 0.74363  0.59347  0.76767  Biso   1.000  H
  C160     1.0000 0.46253  0.42257  0.39177  Biso   1.000  C
  H120     1.0000 0.46693  0.40387  0.46427  Biso   1.000  H
  Cd11     1.0000 0.31966  0.91108  0.16146  Biso   1.000  Cd
  C161     1.0000 0.05243  0.80387  0.91487  Biso   1.000  C
  H121     1.0000 0.03083  0.77547  0.93717  Biso   1.000  H
  C162     1.0000 0.04243  0.83097  0.82697  Biso   1.000  C
  C163     1.0000 0.09353  0.81747  0.97067  Biso   1.000  C
  H122     1.0000 0.09963  0.79837  0.03147  Biso   1.000  H
  C164     1.0000 0.16973  0.87277  0.99737  Biso   1.000  C
  C165     1.0000 0.12573  0.85857  0.93927  Biso   1.000  C
  C166     1.0000 0.17933  0.84787  0.10397  Biso   1.000  C
  H123     1.0000 0.15733  0.82157  0.14697  Biso   1.000  H
  N21      1.0000 0.25381  0.89752  0.09257  Biso   1.000  N
  C167     1.0000 0.11593  0.88627  0.85367  Biso   1.000  C
  H124     1.0000 0.13763  0.91457  0.83237  Biso   1.000  H
  C168     1.0000 0.07463  0.87307  0.79837  Biso   1.000  C
  H125     1.0000 0.06833  0.89247  0.74157  Biso   1.000  H
  C169     1.0000 0.24493  0.92167  0.99117  Biso   1.000  C
  H126     1.0000 0.26773  0.94777  0.95037  Biso   1.000  H
  C170     1.0000 0.22123  0.86127  0.14867  Biso   1.000  C
  H127     1.0000 0.22683  0.84357  0.22287  Biso   1.000  H
  C171     1.0000 0.99813  0.81657  0.77207  Biso   1.000  C
  N22      1.0000 0.97839  0.77993  0.67807  Biso   1.000  N
  C172     1.0000 0.97813  0.83857  0.81557  Biso   1.000  C
  H128     1.0000 0.99313  0.86417  0.88087  Biso   1.000  H
  C173     1.0000 0.93683  0.82437  0.76597  Biso   1.000  C
  H129     1.0000 0.92273  0.83947  0.79657  Biso   1.000  H
  C174     1.0000 0.91633  0.78697  0.66957  Biso   1.000  C
  H130     1.0000 0.88803  0.77627  0.63147  Biso   1.000  H
  C175     1.0000 0.93763  0.76567  0.62967  Biso   1.000  C
  H131     1.0000 0.92303  0.73987  0.56567  Biso   1.000  H
  C176     1.0000 0.20413  0.91077  0.94157  Biso   1.000  C
  H132     1.0000 0.19973  0.92947  0.86907  Biso   1.000  H
  Cd12     1.0000 0.01367  0.75559  0.50521  Biso   1.000  Cd
  C177     1.0000 0.28090  0.86280  0.75180  Biso   1.000  C
  H133     1.0000 0.30250  0.89120  0.72950  Biso   1.000  H
  C178     1.0000 0.29090  0.83570  0.83970  Biso   1.000  C
  C179     1.0000 0.23980  0.84920  0.69600  Biso   1.000  C
  H134     1.0000 0.23370  0.86830  0.63520  Biso   1.000  H
  C180     1.0000 0.16360  0.79390  0.66930  Biso   1.000  C
  C181     1.0000 0.20760  0.80810  0.72740  Biso   1.000  C
  C182     1.0000 0.15400  0.81880  0.56270  Biso   1.000  C
  H135     1.0000 0.17600  0.84510  0.51970  Biso   1.000  H
  N23      1.0000 0.07952  0.76915  0.57410  Biso   1.000  N
  C183     1.0000 0.21740  0.78040  0.81300  Biso   1.000  C
  H136     1.0000 0.19570  0.75210  0.83430  Biso   1.000  H
  C184     1.0000 0.25870  0.79360  0.86830  Biso   1.000  C
  H137     1.0000 0.26500  0.77420  0.92510  Biso   1.000  H
  C185     1.0000 0.08840  0.74500  0.67550  Biso   1.000  C
  H138     1.0000 0.06560  0.71890  0.71630  Biso   1.000  H
  C186     1.0000 0.11210  0.80540  0.51800  Biso   1.000  C
  H139     1.0000 0.10650  0.82310  0.44380  Biso   1.000  H
  C187     1.0000 0.33520  0.85010  0.89460  Biso   1.000  C
  N24      1.0000 0.35494  0.88674  0.98860  Biso   1.000  N
  C188     1.0000 0.35520  0.82810  0.85110  Biso   1.000  C
  H140     1.0000 0.34020  0.80250  0.78580  Biso   1.000  H
  C189     1.0000 0.39650  0.84230  0.90070  Biso   1.000  C
  H141     1.0000 0.41060  0.82720  0.87010  Biso   1.000  H
  C190     1.0000 0.41700  0.87970  0.99710  Biso   1.000  C
  H142     1.0000 0.44530  0.89040  0.03520  Biso   1.000  H
  C191     1.0000 0.39570  0.90100  0.03700  Biso   1.000  C
  H143     1.0000 0.41030  0.92680  0.10100  Biso   1.000  H
  C192     1.0000 0.12920  0.75590  0.72510  Biso   1.000  C
  H144     1.0000 0.13360  0.73720  0.79760  Biso   1.000  H
  Cd13     1.0000 0.75559  0.74192  0.49479  Biso   1.000  Cd
  C193     1.0000 0.86280  0.58190  0.24820  Biso   1.000  C
  H145     1.0000 0.89120  0.58870  0.27050  Biso   1.000  H
  C194     1.0000 0.83570  0.54480  0.16030  Biso   1.000  C
  C195     1.0000 0.84920  0.60940  0.30400  Biso   1.000  C
  H146     1.0000 0.86830  0.63460  0.36480  Biso   1.000  H
  C196     1.0000 0.79390  0.63030  0.33070  Biso   1.000  C
  C197     1.0000 0.80810  0.60050  0.27260  Biso   1.000  C
  C198     1.0000 0.81880  0.66480  0.43730  Biso   1.000  C
  H147     1.0000 0.84510  0.66910  0.48030  Biso   1.000  H
  N25      1.0000 0.76915  0.68963  0.42590  Biso   1.000  N
  C199     1.0000 0.78040  0.56300  0.18700  Biso   1.000  C
  H148     1.0000 0.75210  0.55640  0.16570  Biso   1.000  H
  C200     1.0000 0.79360  0.53490  0.13170  Biso   1.000  C
  H149     1.0000 0.77420  0.50920  0.07490  Biso   1.000  H
  C201     1.0000 0.74500  0.65660  0.32450  Biso   1.000  C
  H150     1.0000 0.71890  0.65330  0.28370  Biso   1.000  H
  C202     1.0000 0.80540  0.69330  0.48200  Biso   1.000  C
  H151     1.0000 0.82310  0.71660  0.55620  Biso   1.000  H
  C203     1.0000 0.85010  0.51490  0.10540  Biso   1.000  C
  N26      1.0000 0.88674  0.53180  0.01140  Biso   1.000  N
  C204     1.0000 0.82810  0.47290  0.14890  Biso   1.000  C
  H152     1.0000 0.80250  0.46230  0.21420  Biso   1.000  H
  C205     1.0000 0.84230  0.44580  0.09930  Biso   1.000  C
  H153     1.0000 0.82720  0.41660  0.12990  Biso   1.000  H
  C206     1.0000 0.87970  0.46270  0.00290  Biso   1.000  C
  H154     1.0000 0.89040  0.44510  0.96480  Biso   1.000  H
  C207     1.0000 0.90100  0.50530  0.96300  Biso   1.000  C
  H155     1.0000 0.92680  0.51650  0.89900  Biso   1.000  H
  C208     1.0000 0.75590  0.62670  0.27490  Biso   1.000  C
  H156     1.0000 0.73720  0.60360  0.20240  Biso   1.000  H
  Cd14     1.0000 0.91108  0.59141  0.83854  Biso   1.000  Cd
  C209     1.0000 0.80387  0.75143  0.08513  Biso   1.000  C
  H157     1.0000 0.77547  0.74463  0.06283  Biso   1.000  H
  C210     1.0000 0.83097  0.78853  0.17303  Biso   1.000  C
  C211     1.0000 0.81747  0.72393  0.02933  Biso   1.000  C
  H158     1.0000 0.79837  0.69873  0.96853  Biso   1.000  H
  C212     1.0000 0.87277  0.70303  0.00263  Biso   1.000  C
  C213     1.0000 0.85857  0.73283  0.06073  Biso   1.000  C
  C214     1.0000 0.84787  0.66853  0.89603  Biso   1.000  C
  H159     1.0000 0.82157  0.66423  0.85303  Biso   1.000  H
  N27      1.0000 0.89752  0.64370  0.90743  Biso   1.000  N
  C215     1.0000 0.88627  0.77033  0.14633  Biso   1.000  C
  H160     1.0000 0.91457  0.77693  0.16763  Biso   1.000  H
  C216     1.0000 0.87307  0.79843  0.20163  Biso   1.000  C
  H161     1.0000 0.89247  0.82413  0.25843  Biso   1.000  H
  C217     1.0000 0.92167  0.67673  0.00883  Biso   1.000  C
  H162     1.0000 0.94777  0.68003  0.04963  Biso   1.000  H
  C218     1.0000 0.86127  0.64003  0.85133  Biso   1.000  C
  H163     1.0000 0.84357  0.61673  0.77713  Biso   1.000  H
  C219     1.0000 0.81657  0.81843  0.22793  Biso   1.000  C
  N28      1.0000 0.77993  0.80153  0.32193  Biso   1.000  N
  C220     1.0000 0.83857  0.86043  0.18443  Biso   1.000  C
  H164     1.0000 0.86417  0.87103  0.11913  Biso   1.000  H
  C221     1.0000 0.82437  0.88753  0.23403  Biso   1.000  C
  H165     1.0000 0.83947  0.91673  0.20343  Biso   1.000  H
  C222     1.0000 0.78697  0.87063  0.33043  Biso   1.000  C
  H166     1.0000 0.77627  0.88823  0.36853  Biso   1.000  H
  C223     1.0000 0.76567  0.82803  0.37033  Biso   1.000  C
  H167     1.0000 0.73987  0.81683  0.43433  Biso   1.000  H
  C224     1.0000 0.91077  0.70663  0.05843  Biso   1.000  C
  H168     1.0000 0.92947  0.72973  0.13093  Biso   1.000  H
  Cd15     1.0000 0.42226  0.07525  0.82812  Biso   1.000  Cd
  C225     1.0000 0.52947  0.91523  0.58153  Biso   1.000  C
  H169     1.0000 0.55787  0.92203  0.60383  Biso   1.000  H
  C226     1.0000 0.50237  0.87813  0.49363  Biso   1.000  C
  C227     1.0000 0.51587  0.94273  0.63733  Biso   1.000  C
  H170     1.0000 0.53497  0.96793  0.69813  Biso   1.000  H
  C228     1.0000 0.46057  0.96363  0.66403  Biso   1.000  C
  C229     1.0000 0.47477  0.93383  0.60593  Biso   1.000  C
  C230     1.0000 0.48547  0.99813  0.77063  Biso   1.000  C
  H171     1.0000 0.51177  0.00243  0.81363  Biso   1.000  H
  N29      1.0000 0.43582  0.02296  0.75923  Biso   1.000  N
  C231     1.0000 0.44707  0.89633  0.52033  Biso   1.000  C
  H172     1.0000 0.41877  0.88973  0.49903  Biso   1.000  H
  C232     1.0000 0.46027  0.86823  0.46503  Biso   1.000  C
  H173     1.0000 0.44087  0.84253  0.40823  Biso   1.000  H
  C233     1.0000 0.41167  0.98993  0.65783  Biso   1.000  C
  H174     1.0000 0.38557  0.98663  0.61703  Biso   1.000  H
  C234     1.0000 0.47207  0.02663  0.81533  Biso   1.000  C
  H175     1.0000 0.48977  0.04993  0.88953  Biso   1.000  H
  C235     1.0000 0.51677  0.84823  0.43873  Biso   1.000  C
  N30      1.0000 0.55341  0.86513  0.34473  Biso   1.000  N
  C236     1.0000 0.49477  0.80623  0.48223  Biso   1.000  C
  H176     1.0000 0.46917  0.79563  0.54753  Biso   1.000  H
  C237     1.0000 0.50897  0.77913  0.43263  Biso   1.000  C
  H177     1.0000 0.49387  0.74993  0.46323  Biso   1.000  H
  C238     1.0000 0.54637  0.79603  0.33623  Biso   1.000  C
  H178     1.0000 0.55707  0.77843  0.29813  Biso   1.000  H
  C239     1.0000 0.56767  0.83863  0.29633  Biso   1.000  C
  H179     1.0000 0.59347  0.84983  0.23233  Biso   1.000  H
  C240     1.0000 0.42257  0.96003  0.60823  Biso   1.000  C
  H180     1.0000 0.40387  0.93693  0.53573  Biso   1.000  H
  Cd16     1.0000 0.57774  0.92475  0.17188  Biso   1.000  Cd
  C241     1.0000 0.47053  0.08477  0.41847  Biso   1.000  C
  H181     1.0000 0.44213  0.07797  0.39617  Biso   1.000  H
  C242     1.0000 0.49763  0.12187  0.50637  Biso   1.000  C
  C243     1.0000 0.48413  0.05727  0.36267  Biso   1.000  C
  H182     1.0000 0.46503  0.03207  0.30187  Biso   1.000  H
  C244     1.0000 0.53943  0.03637  0.33597  Biso   1.000  C
  C245     1.0000 0.52523  0.06617  0.39407  Biso   1.000  C
  C246     1.0000 0.51453  0.00187  0.22937  Biso   1.000  C
  H183     1.0000 0.48823  0.99757  0.18637  Biso   1.000  H
  N31      1.0000 0.56418  0.97704  0.24077  Biso   1.000  N
  C247     1.0000 0.55293  0.10367  0.47967  Biso   1.000  C
  H184     1.0000 0.58123  0.11027  0.50097  Biso   1.000  H
  C248     1.0000 0.53973  0.13177  0.53497  Biso   1.000  C
  H185     1.0000 0.55913  0.15747  0.59177  Biso   1.000  H
  C249     1.0000 0.58833  0.01007  0.34217  Biso   1.000  C
  H186     1.0000 0.61443  0.01337  0.38297  Biso   1.000  H
  C250     1.0000 0.52793  0.97337  0.18467  Biso   1.000  C
  H187     1.0000 0.51023  0.95007  0.11047  Biso   1.000  H
  C251     1.0000 0.48323  0.15177  0.56127  Biso   1.000  C
  N32      1.0000 0.44659  0.13487  0.65527  Biso   1.000  N
  C252     1.0000 0.50523  0.19377  0.51777  Biso   1.000  C
  H188     1.0000 0.53083  0.20437  0.45247  Biso   1.000  H
  C253     1.0000 0.49103  0.22087  0.56737  Biso   1.000  C
  H189     1.0000 0.50613  0.25007  0.53677  Biso   1.000  H
  C254     1.0000 0.45363  0.20397  0.66377  Biso   1.000  C
  H190     1.0000 0.44293  0.22157  0.70187  Biso   1.000  H
  C255     1.0000 0.43233  0.16137  0.70367  Biso   1.000  C
  H191     1.0000 0.40653  0.15017  0.76767  Biso   1.000  H
  C256     1.0000 0.57743  0.03997  0.39177  Biso   1.000  C
  H192     1.0000 0.59613  0.06307  0.46427  Biso   1.000  H
  Cd17     1.0000 0.08892  0.40859  0.16146  Biso   1.000  Cd
  C257     1.0000 0.19613  0.24857  0.91487  Biso   1.000  C
  H193     1.0000 0.22453  0.25537  0.93717  Biso   1.000  H
  C258     1.0000 0.16903  0.21147  0.82697  Biso   1.000  C
  C259     1.0000 0.18253  0.27607  0.97067  Biso   1.000  C
  H194     1.0000 0.20163  0.30127  0.03147  Biso   1.000  H
  C260     1.0000 0.12723  0.29697  0.99737  Biso   1.000  C
  C261     1.0000 0.14143  0.26717  0.93927  Biso   1.000  C
  C262     1.0000 0.15213  0.33147  0.10397  Biso   1.000  C
  H195     1.0000 0.17843  0.33577  0.14697  Biso   1.000  H
  N33      1.0000 0.10248  0.35630  0.09257  Biso   1.000  N
  C263     1.0000 0.11373  0.22967  0.85367  Biso   1.000  C
  H196     1.0000 0.08543  0.22307  0.83237  Biso   1.000  H
  C264     1.0000 0.12693  0.20157  0.79837  Biso   1.000  C
  H197     1.0000 0.10753  0.17587  0.74157  Biso   1.000  H
  C265     1.0000 0.07833  0.32327  0.99117  Biso   1.000  C
  H198     1.0000 0.05223  0.31997  0.95037  Biso   1.000  H
  C266     1.0000 0.13873  0.35997  0.14867  Biso   1.000  C
  H199     1.0000 0.15643  0.38327  0.22287  Biso   1.000  H
  C267     1.0000 0.18343  0.18157  0.77207  Biso   1.000  C
  N34      1.0000 0.22007  0.19847  0.67807  Biso   1.000  N
  C268     1.0000 0.16143  0.13957  0.81557  Biso   1.000  C
  H200     1.0000 0.13583  0.12897  0.88087  Biso   1.000  H
  C269     1.0000 0.17563  0.11247  0.76597  Biso   1.000  C
  H201     1.0000 0.16053  0.08327  0.79657  Biso   1.000  H
  C270     1.0000 0.21303  0.12937  0.66957  Biso   1.000  C
  H202     1.0000 0.22373  0.11177  0.63147  Biso   1.000  H
  C271     1.0000 0.23433  0.17197  0.62967  Biso   1.000  C
  H203     1.0000 0.26013  0.18317  0.56567  Biso   1.000  H
  C272     1.0000 0.08923  0.29337  0.94157  Biso   1.000  C
  H204     1.0000 0.07053  0.27027  0.86907  Biso   1.000  H
  Cd18     1.0000 0.24441  0.25808  0.50521  Biso   1.000  Cd
  C273     1.0000 0.13720  0.41810  0.75180  Biso   1.000  C
  H205     1.0000 0.10880  0.41130  0.72950  Biso   1.000  H
  C274     1.0000 0.16430  0.45520  0.83970  Biso   1.000  C
  C275     1.0000 0.15080  0.39060  0.69600  Biso   1.000  C
  H206     1.0000 0.13170  0.36540  0.63520  Biso   1.000  H
  C276     1.0000 0.20610  0.36970  0.66930  Biso   1.000  C
  C277     1.0000 0.19190  0.39950  0.72740  Biso   1.000  C
  C278     1.0000 0.18120  0.33520  0.56270  Biso   1.000  C
  H207     1.0000 0.15490  0.33090  0.51970  Biso   1.000  H
  N35      1.0000 0.23085  0.31037  0.57410  Biso   1.000  N
  C279     1.0000 0.21960  0.43700  0.81300  Biso   1.000  C
  H208     1.0000 0.24790  0.44360  0.83430  Biso   1.000  H
  C280     1.0000 0.20640  0.46510  0.86830  Biso   1.000  C
  H209     1.0000 0.22580  0.49080  0.92510  Biso   1.000  H
  C281     1.0000 0.25500  0.34340  0.67550  Biso   1.000  C
  H210     1.0000 0.28110  0.34670  0.71630  Biso   1.000  H
  C282     1.0000 0.19460  0.30670  0.51800  Biso   1.000  C
  H211     1.0000 0.17690  0.28340  0.44380  Biso   1.000  H
  C283     1.0000 0.14990  0.48510  0.89460  Biso   1.000  C
  N36      1.0000 0.11326  0.46820  0.98860  Biso   1.000  N
  C284     1.0000 0.17190  0.52710  0.85110  Biso   1.000  C
  H212     1.0000 0.19750  0.53770  0.78580  Biso   1.000  H
  C285     1.0000 0.15770  0.55420  0.90070  Biso   1.000  C
  H213     1.0000 0.17280  0.58340  0.87010  Biso   1.000  H
  C286     1.0000 0.12030  0.53730  0.99710  Biso   1.000  C
  H214     1.0000 0.10960  0.55490  0.03520  Biso   1.000  H
  C287     1.0000 0.09900  0.49470  0.03700  Biso   1.000  C
  H215     1.0000 0.07320  0.48350  0.10100  Biso   1.000  H
  C288     1.0000 0.24410  0.37330  0.72510  Biso   1.000  C
  H216     1.0000 0.26280  0.39640  0.79760  Biso   1.000  H
