data_image0
_cell_length_a       22.8377
_cell_length_b       22.8377
_cell_length_c       13.5233
_cell_angle_alpha    90
_cell_angle_beta     90
_cell_angle_gamma    90

_symmetry_space_group_name_H-M    "P 1"
_symmetry_int_tables_number       1

loop_
  _symmetry_equiv_pos_as_xyz
  'x, y, z'

loop_
  _atom_site_label
  _atom_site_occupancy
  _atom_site_fract_x
  _atom_site_fract_y
  _atom_site_fract_z
  _atom_site_thermal_displace_type
  _atom_site_B_iso_or_equiv
  _atom_site_type_symbol
  C1       1.0000 0.19985  0.81134  0.37530  Biso   1.000  C
  H1       1.0000 0.16460  0.83180  0.37650  Biso   1.000  H
  C2       1.0000 0.19810  0.75086  0.37394  Biso   1.000  C
  H2       1.0000 0.16230  0.73160  0.37230  Biso   1.000  H
  C3       1.0000 0.29917  0.62200  0.40327  Biso   1.000  C
  H3       1.0000 0.33300  0.64120  0.42340  Biso   1.000  H
  C4       1.0000 0.29719  0.56139  0.40108  Biso   1.000  C
  H4       1.0000 0.33080  0.54090  0.41890  Biso   1.000  H
  C5       1.0000 0.30020  0.31174  0.36926  Biso   1.000  C
  H5       1.0000 0.33520  0.33240  0.36530  Biso   1.000  H
  C6       1.0000 0.30215  0.25106  0.36894  Biso   1.000  C
  H6       1.0000 0.33780  0.23160  0.36470  Biso   1.000  H
  C7       1.0000 0.20491  0.12310  0.33216  Biso   1.000  C
  H7       1.0000 0.17340  0.14250  0.30340  Biso   1.000  H
  C8       1.0000 0.20701  0.06242  0.33244  Biso   1.000  C
  H8       1.0000 0.17700  0.04200  0.30140  Biso   1.000  H
  C9       1.0000 0.30015  0.81134  0.37470  Biso   1.000  C
  H9       1.0000 0.33540  0.83180  0.37350  Biso   1.000  H
  C10      1.0000 0.30190  0.75086  0.37606  Biso   1.000  C
  H10      1.0000 0.33770  0.73160  0.37770  Biso   1.000  H
  C11      1.0000 0.20083  0.62200  0.34673  Biso   1.000  C
  H11      1.0000 0.16700  0.64120  0.32660  Biso   1.000  H
  C12      1.0000 0.20281  0.56139  0.34892  Biso   1.000  C
  H12      1.0000 0.16920  0.54090  0.33110  Biso   1.000  H
  C13      1.0000 0.19980  0.31174  0.38074  Biso   1.000  C
  H13      1.0000 0.16480  0.33240  0.38470  Biso   1.000  H
  C14      1.0000 0.19785  0.25106  0.38106  Biso   1.000  C
  H14      1.0000 0.16220  0.23160  0.38530  Biso   1.000  H
  C15      1.0000 0.29509  0.12310  0.41784  Biso   1.000  C
  H15      1.0000 0.32660  0.14250  0.44660  Biso   1.000  H
  C16      1.0000 0.29299  0.06242  0.41756  Biso   1.000  C
  H16      1.0000 0.32300  0.04200  0.44860  Biso   1.000  H
  Zn1      1.0000 0.25000  0.93639  0.37500  Biso   1.000  Zn
  Zn2      1.0000 0.25000  0.43442  0.37500  Biso   1.000  Zn
  N1       1.0000 0.25000  0.84203  0.37500  Biso   1.000  N
  N2       1.0000 0.25000  0.53075  0.37500  Biso   1.000  N
  N3       1.0000 0.25000  0.34179  0.37500  Biso   1.000  N
  N4       1.0000 0.25000  0.03193  0.37500  Biso   1.000  N
  C17      1.0000 0.25000  0.71877  0.37500  Biso   1.000  C
  C18      1.0000 0.25000  0.65385  0.37500  Biso   1.000  C
  C19      1.0000 0.25000  0.21954  0.37500  Biso   1.000  C
  C20      1.0000 0.25000  0.15471  0.37500  Biso   1.000  C
  C21      1.0000 0.69985  0.31134  0.87530  Biso   1.000  C
  H17      1.0000 0.66460  0.33180  0.87650  Biso   1.000  H
  C22      1.0000 0.69810  0.25086  0.87394  Biso   1.000  C
  H18      1.0000 0.66230  0.23160  0.87230  Biso   1.000  H
  C23      1.0000 0.79917  0.12200  0.90327  Biso   1.000  C
  H19      1.0000 0.83300  0.14120  0.92340  Biso   1.000  H
  C24      1.0000 0.79719  0.06139  0.90108  Biso   1.000  C
  H20      1.0000 0.83080  0.04090  0.91890  Biso   1.000  H
  C25      1.0000 0.80020  0.81174  0.86926  Biso   1.000  C
  H21      1.0000 0.83520  0.83240  0.86530  Biso   1.000  H
  C26      1.0000 0.80215  0.75106  0.86894  Biso   1.000  C
  H22      1.0000 0.83780  0.73160  0.86470  Biso   1.000  H
  C27      1.0000 0.70491  0.62310  0.83216  Biso   1.000  C
  H23      1.0000 0.67340  0.64250  0.80340  Biso   1.000  H
  C28      1.0000 0.70701  0.56242  0.83244  Biso   1.000  C
  H24      1.0000 0.67700  0.54200  0.80140  Biso   1.000  H
  C29      1.0000 0.80015  0.31134  0.87470  Biso   1.000  C
  H25      1.0000 0.83540  0.33180  0.87350  Biso   1.000  H
  C30      1.0000 0.80190  0.25086  0.87606  Biso   1.000  C
  H26      1.0000 0.83770  0.23160  0.87770  Biso   1.000  H
  C31      1.0000 0.70083  0.12200  0.84673  Biso   1.000  C
  H27      1.0000 0.66700  0.14120  0.82660  Biso   1.000  H
  C32      1.0000 0.70281  0.06139  0.84892  Biso   1.000  C
  H28      1.0000 0.66920  0.04090  0.83110  Biso   1.000  H
  C33      1.0000 0.69980  0.81174  0.88074  Biso   1.000  C
  H29      1.0000 0.66480  0.83240  0.88470  Biso   1.000  H
  C34      1.0000 0.69785  0.75106  0.88106  Biso   1.000  C
  H30      1.0000 0.66220  0.73160  0.88530  Biso   1.000  H
  C35      1.0000 0.79509  0.62310  0.91784  Biso   1.000  C
  H31      1.0000 0.82660  0.64250  0.94660  Biso   1.000  H
  C36      1.0000 0.79299  0.56242  0.91756  Biso   1.000  C
  H32      1.0000 0.82300  0.54200  0.94860  Biso   1.000  H
  Zn3      1.0000 0.75000  0.43639  0.87500  Biso   1.000  Zn
  Zn4      1.0000 0.75000  0.93442  0.87500  Biso   1.000  Zn
  N5       1.0000 0.75000  0.34203  0.87500  Biso   1.000  N
  N6       1.0000 0.75000  0.03075  0.87500  Biso   1.000  N
  N7       1.0000 0.75000  0.84179  0.87500  Biso   1.000  N
  N8       1.0000 0.75000  0.53193  0.87500  Biso   1.000  N
  C37      1.0000 0.75000  0.21877  0.87500  Biso   1.000  C
  C38      1.0000 0.75000  0.15385  0.87500  Biso   1.000  C
  C39      1.0000 0.75000  0.71954  0.87500  Biso   1.000  C
  C40      1.0000 0.75000  0.65471  0.87500  Biso   1.000  C
  C41      1.0000 0.80015  0.18866  0.37530  Biso   1.000  C
  H33      1.0000 0.83540  0.16820  0.37650  Biso   1.000  H
  C42      1.0000 0.80190  0.24914  0.37394  Biso   1.000  C
  H34      1.0000 0.83770  0.26840  0.37230  Biso   1.000  H
  C43      1.0000 0.70083  0.37800  0.40327  Biso   1.000  C
  H35      1.0000 0.66700  0.35880  0.42340  Biso   1.000  H
  C44      1.0000 0.70281  0.43861  0.40108  Biso   1.000  C
  H36      1.0000 0.66920  0.45910  0.41890  Biso   1.000  H
  C45      1.0000 0.69980  0.68826  0.36926  Biso   1.000  C
  H37      1.0000 0.66480  0.66760  0.36530  Biso   1.000  H
  C46      1.0000 0.69785  0.74894  0.36894  Biso   1.000  C
  H38      1.0000 0.66220  0.76840  0.36470  Biso   1.000  H
  C47      1.0000 0.79509  0.87690  0.33216  Biso   1.000  C
  H39      1.0000 0.82660  0.85750  0.30340  Biso   1.000  H
  C48      1.0000 0.79299  0.93758  0.33244  Biso   1.000  C
  H40      1.0000 0.82300  0.95800  0.30140  Biso   1.000  H
  C49      1.0000 0.69985  0.18866  0.37470  Biso   1.000  C
  H41      1.0000 0.66460  0.16820  0.37350  Biso   1.000  H
  C50      1.0000 0.69810  0.24914  0.37606  Biso   1.000  C
  H42      1.0000 0.66230  0.26840  0.37770  Biso   1.000  H
  C51      1.0000 0.79917  0.37800  0.34673  Biso   1.000  C
  H43      1.0000 0.83300  0.35880  0.32660  Biso   1.000  H
  C52      1.0000 0.79719  0.43861  0.34892  Biso   1.000  C
  H44      1.0000 0.83080  0.45910  0.33110  Biso   1.000  H
  C53      1.0000 0.80020  0.68826  0.38074  Biso   1.000  C
  H45      1.0000 0.83520  0.66760  0.38470  Biso   1.000  H
  C54      1.0000 0.80215  0.74894  0.38106  Biso   1.000  C
  H46      1.0000 0.83780  0.76840  0.38530  Biso   1.000  H
  C55      1.0000 0.70491  0.87690  0.41784  Biso   1.000  C
  H47      1.0000 0.67340  0.85750  0.44660  Biso   1.000  H
  C56      1.0000 0.70701  0.93758  0.41756  Biso   1.000  C
  H48      1.0000 0.67700  0.95800  0.44860  Biso   1.000  H
  Zn5      1.0000 0.75000  0.06361  0.37500  Biso   1.000  Zn
  Zn6      1.0000 0.75000  0.56558  0.37500  Biso   1.000  Zn
  N9       1.0000 0.75000  0.15797  0.37500  Biso   1.000  N
  N10      1.0000 0.75000  0.46925  0.37500  Biso   1.000  N
  N11      1.0000 0.75000  0.65821  0.37500  Biso   1.000  N
  N12      1.0000 0.75000  0.96807  0.37500  Biso   1.000  N
  C57      1.0000 0.75000  0.28123  0.37500  Biso   1.000  C
  C58      1.0000 0.75000  0.34615  0.37500  Biso   1.000  C
  C59      1.0000 0.75000  0.78046  0.37500  Biso   1.000  C
  C60      1.0000 0.75000  0.84529  0.37500  Biso   1.000  C
  C61      1.0000 0.30015  0.68866  0.87530  Biso   1.000  C
  H49      1.0000 0.33540  0.66820  0.87650  Biso   1.000  H
  C62      1.0000 0.30190  0.74914  0.87394  Biso   1.000  C
  H50      1.0000 0.33770  0.76840  0.87230  Biso   1.000  H
  C63      1.0000 0.20083  0.87800  0.90327  Biso   1.000  C
  H51      1.0000 0.16700  0.85880  0.92340  Biso   1.000  H
  C64      1.0000 0.20281  0.93861  0.90108  Biso   1.000  C
  H52      1.0000 0.16920  0.95910  0.91890  Biso   1.000  H
  C65      1.0000 0.19980  0.18826  0.86926  Biso   1.000  C
  H53      1.0000 0.16480  0.16760  0.86530  Biso   1.000  H
  C66      1.0000 0.19785  0.24894  0.86894  Biso   1.000  C
  H54      1.0000 0.16220  0.26840  0.86470  Biso   1.000  H
  C67      1.0000 0.29509  0.37690  0.83216  Biso   1.000  C
  H55      1.0000 0.32660  0.35750  0.80340  Biso   1.000  H
  C68      1.0000 0.29299  0.43758  0.83244  Biso   1.000  C
  H56      1.0000 0.32300  0.45800  0.80140  Biso   1.000  H
  C69      1.0000 0.19985  0.68866  0.87470  Biso   1.000  C
  H57      1.0000 0.16460  0.66820  0.87350  Biso   1.000  H
  C70      1.0000 0.19810  0.74914  0.87606  Biso   1.000  C
  H58      1.0000 0.16230  0.76840  0.87770  Biso   1.000  H
  C71      1.0000 0.29917  0.87800  0.84673  Biso   1.000  C
  H59      1.0000 0.33300  0.85880  0.82660  Biso   1.000  H
  C72      1.0000 0.29719  0.93861  0.84892  Biso   1.000  C
  H60      1.0000 0.33080  0.95910  0.83110  Biso   1.000  H
  C73      1.0000 0.30020  0.18826  0.88074  Biso   1.000  C
  H61      1.0000 0.33520  0.16760  0.88470  Biso   1.000  H
  C74      1.0000 0.30215  0.24894  0.88106  Biso   1.000  C
  H62      1.0000 0.33780  0.26840  0.88530  Biso   1.000  H
  C75      1.0000 0.20491  0.37690  0.91784  Biso   1.000  C
  H63      1.0000 0.17340  0.35750  0.94660  Biso   1.000  H
  C76      1.0000 0.20701  0.43758  0.91756  Biso   1.000  C
  H64      1.0000 0.17700  0.45800  0.94860  Biso   1.000  H
  Zn7      1.0000 0.25000  0.56361  0.87500  Biso   1.000  Zn
  Zn8      1.0000 0.25000  0.06558  0.87500  Biso   1.000  Zn
  N13      1.0000 0.25000  0.65797  0.87500  Biso   1.000  N
  N14      1.0000 0.25000  0.96925  0.87500  Biso   1.000  N
  N15      1.0000 0.25000  0.15821  0.87500  Biso   1.000  N
  N16      1.0000 0.25000  0.46807  0.87500  Biso   1.000  N
  C77      1.0000 0.25000  0.78123  0.87500  Biso   1.000  C
  C78      1.0000 0.25000  0.84615  0.87500  Biso   1.000  C
  C79      1.0000 0.25000  0.28046  0.87500  Biso   1.000  C
  C80      1.0000 0.25000  0.34529  0.87500  Biso   1.000  C
  C81      1.0000 0.81134  0.80015  0.62470  Biso   1.000  C
  H65      1.0000 0.83180  0.83540  0.62350  Biso   1.000  H
  C82      1.0000 0.75086  0.80190  0.62606  Biso   1.000  C
  H66      1.0000 0.73160  0.83770  0.62770  Biso   1.000  H
  C83      1.0000 0.62200  0.70083  0.59673  Biso   1.000  C
  H67      1.0000 0.64120  0.66700  0.57660  Biso   1.000  H
  C84      1.0000 0.56139  0.70281  0.59892  Biso   1.000  C
  H68      1.0000 0.54090  0.66920  0.58110  Biso   1.000  H
  C85      1.0000 0.31174  0.69980  0.63074  Biso   1.000  C
  H69      1.0000 0.33240  0.66480  0.63470  Biso   1.000  H
  C86      1.0000 0.25106  0.69785  0.63106  Biso   1.000  C
  H70      1.0000 0.23160  0.66220  0.63530  Biso   1.000  H
  C87      1.0000 0.12310  0.79509  0.66784  Biso   1.000  C
  H71      1.0000 0.14250  0.82660  0.69660  Biso   1.000  H
  C88      1.0000 0.06242  0.79299  0.66756  Biso   1.000  C
  H72      1.0000 0.04200  0.82300  0.69860  Biso   1.000  H
  C89      1.0000 0.81134  0.69985  0.62530  Biso   1.000  C
  H73      1.0000 0.83180  0.66460  0.62650  Biso   1.000  H
  C90      1.0000 0.75086  0.69810  0.62394  Biso   1.000  C
  H74      1.0000 0.73160  0.66230  0.62230  Biso   1.000  H
  C91      1.0000 0.62200  0.79917  0.65327  Biso   1.000  C
  H75      1.0000 0.64120  0.83300  0.67340  Biso   1.000  H
  C92      1.0000 0.56139  0.79719  0.65108  Biso   1.000  C
  H76      1.0000 0.54090  0.83080  0.66890  Biso   1.000  H
  C93      1.0000 0.31174  0.80020  0.61926  Biso   1.000  C
  H77      1.0000 0.33240  0.83520  0.61530  Biso   1.000  H
  C94      1.0000 0.25106  0.80215  0.61894  Biso   1.000  C
  H78      1.0000 0.23160  0.83780  0.61470  Biso   1.000  H
  C95      1.0000 0.12310  0.70491  0.58216  Biso   1.000  C
  H79      1.0000 0.14250  0.67340  0.55340  Biso   1.000  H
  C96      1.0000 0.06242  0.70701  0.58244  Biso   1.000  C
  H80      1.0000 0.04200  0.67700  0.55140  Biso   1.000  H
  Zn9      1.0000 0.93639  0.75000  0.62500  Biso   1.000  Zn
  Zn10     1.0000 0.43442  0.75000  0.62500  Biso   1.000  Zn
  N17      1.0000 0.84203  0.75000  0.62500  Biso   1.000  N
  N18      1.0000 0.53075  0.75000  0.62500  Biso   1.000  N
  N19      1.0000 0.34179  0.75000  0.62500  Biso   1.000  N
  N20      1.0000 0.03193  0.75000  0.62500  Biso   1.000  N
  C97      1.0000 0.71877  0.75000  0.62500  Biso   1.000  C
  C98      1.0000 0.65385  0.75000  0.62500  Biso   1.000  C
  C99      1.0000 0.21954  0.75000  0.62500  Biso   1.000  C
  C100     1.0000 0.15471  0.75000  0.62500  Biso   1.000  C
  C101     1.0000 0.31134  0.30015  0.12470  Biso   1.000  C
  H81      1.0000 0.33180  0.33540  0.12350  Biso   1.000  H
  C102     1.0000 0.25086  0.30190  0.12606  Biso   1.000  C
  H82      1.0000 0.23160  0.33770  0.12770  Biso   1.000  H
  C103     1.0000 0.12200  0.20083  0.09673  Biso   1.000  C
  H83      1.0000 0.14120  0.16700  0.07660  Biso   1.000  H
  C104     1.0000 0.06139  0.20281  0.09892  Biso   1.000  C
  H84      1.0000 0.04090  0.16920  0.08110  Biso   1.000  H
  C105     1.0000 0.81174  0.19980  0.13074  Biso   1.000  C
  H85      1.0000 0.83240  0.16480  0.13470  Biso   1.000  H
  C106     1.0000 0.75106  0.19785  0.13106  Biso   1.000  C
  H86      1.0000 0.73160  0.16220  0.13530  Biso   1.000  H
  C107     1.0000 0.62310  0.29509  0.16784  Biso   1.000  C
  H87      1.0000 0.64250  0.32660  0.19660  Biso   1.000  H
  C108     1.0000 0.56242  0.29299  0.16756  Biso   1.000  C
  H88      1.0000 0.54200  0.32300  0.19860  Biso   1.000  H
  C109     1.0000 0.31134  0.19985  0.12530  Biso   1.000  C
  H89      1.0000 0.33180  0.16460  0.12650  Biso   1.000  H
  C110     1.0000 0.25086  0.19810  0.12394  Biso   1.000  C
  H90      1.0000 0.23160  0.16230  0.12230  Biso   1.000  H
  C111     1.0000 0.12200  0.29917  0.15327  Biso   1.000  C
  H91      1.0000 0.14120  0.33300  0.17340  Biso   1.000  H
  C112     1.0000 0.06139  0.29719  0.15108  Biso   1.000  C
  H92      1.0000 0.04090  0.33080  0.16890  Biso   1.000  H
  C113     1.0000 0.81174  0.30020  0.11926  Biso   1.000  C
  H93      1.0000 0.83240  0.33520  0.11530  Biso   1.000  H
  C114     1.0000 0.75106  0.30215  0.11894  Biso   1.000  C
  H94      1.0000 0.73160  0.33780  0.11470  Biso   1.000  H
  C115     1.0000 0.62310  0.20491  0.08216  Biso   1.000  C
  H95      1.0000 0.64250  0.17340  0.05340  Biso   1.000  H
  C116     1.0000 0.56242  0.20701  0.08244  Biso   1.000  C
  H96      1.0000 0.54200  0.17700  0.05140  Biso   1.000  H
  Zn11     1.0000 0.43639  0.25000  0.12500  Biso   1.000  Zn
  Zn12     1.0000 0.93442  0.25000  0.12500  Biso   1.000  Zn
  N21      1.0000 0.34203  0.25000  0.12500  Biso   1.000  N
  N22      1.0000 0.03075  0.25000  0.12500  Biso   1.000  N
  N23      1.0000 0.84179  0.25000  0.12500  Biso   1.000  N
  N24      1.0000 0.53193  0.25000  0.12500  Biso   1.000  N
  C117     1.0000 0.21877  0.25000  0.12500  Biso   1.000  C
  C118     1.0000 0.15385  0.25000  0.12500  Biso   1.000  C
  C119     1.0000 0.71954  0.25000  0.12500  Biso   1.000  C
  C120     1.0000 0.65471  0.25000  0.12500  Biso   1.000  C
  C121     1.0000 0.18866  0.19985  0.62470  Biso   1.000  C
  H97      1.0000 0.16820  0.16460  0.62350  Biso   1.000  H
  C122     1.0000 0.24914  0.19810  0.62606  Biso   1.000  C
  H98      1.0000 0.26840  0.16230  0.62770  Biso   1.000  H
  C123     1.0000 0.37800  0.29917  0.59673  Biso   1.000  C
  H99      1.0000 0.35880  0.33300  0.57660  Biso   1.000  H
  C124     1.0000 0.43861  0.29719  0.59892  Biso   1.000  C
  H100     1.0000 0.45910  0.33080  0.58110  Biso   1.000  H
  C125     1.0000 0.68826  0.30020  0.63074  Biso   1.000  C
  H101     1.0000 0.66760  0.33520  0.63470  Biso   1.000  H
  C126     1.0000 0.74894  0.30215  0.63106  Biso   1.000  C
  H102     1.0000 0.76840  0.33780  0.63530  Biso   1.000  H
  C127     1.0000 0.87690  0.20491  0.66784  Biso   1.000  C
  H103     1.0000 0.85750  0.17340  0.69660  Biso   1.000  H
  C128     1.0000 0.93758  0.20701  0.66756  Biso   1.000  C
  H104     1.0000 0.95800  0.17700  0.69860  Biso   1.000  H
  C129     1.0000 0.18866  0.30015  0.62530  Biso   1.000  C
  H105     1.0000 0.16820  0.33540  0.62650  Biso   1.000  H
  C130     1.0000 0.24914  0.30190  0.62394  Biso   1.000  C
  H106     1.0000 0.26840  0.33770  0.62230  Biso   1.000  H
  C131     1.0000 0.37800  0.20083  0.65327  Biso   1.000  C
  H107     1.0000 0.35880  0.16700  0.67340  Biso   1.000  H
  C132     1.0000 0.43861  0.20281  0.65108  Biso   1.000  C
  H108     1.0000 0.45910  0.16920  0.66890  Biso   1.000  H
  C133     1.0000 0.68826  0.19980  0.61926  Biso   1.000  C
  H109     1.0000 0.66760  0.16480  0.61530  Biso   1.000  H
  C134     1.0000 0.74894  0.19785  0.61894  Biso   1.000  C
  H110     1.0000 0.76840  0.16220  0.61470  Biso   1.000  H
  C135     1.0000 0.87690  0.29509  0.58216  Biso   1.000  C
  H111     1.0000 0.85750  0.32660  0.55340  Biso   1.000  H
  C136     1.0000 0.93758  0.29299  0.58244  Biso   1.000  C
  H112     1.0000 0.95800  0.32300  0.55140  Biso   1.000  H
  Zn13     1.0000 0.06361  0.25000  0.62500  Biso   1.000  Zn
  Zn14     1.0000 0.56558  0.25000  0.62500  Biso   1.000  Zn
  N25      1.0000 0.15797  0.25000  0.62500  Biso   1.000  N
  N26      1.0000 0.46925  0.25000  0.62500  Biso   1.000  N
  N27      1.0000 0.65821  0.25000  0.62500  Biso   1.000  N
  N28      1.0000 0.96807  0.25000  0.62500  Biso   1.000  N
  C137     1.0000 0.28123  0.25000  0.62500  Biso   1.000  C
  C138     1.0000 0.34615  0.25000  0.62500  Biso   1.000  C
  C139     1.0000 0.78046  0.25000  0.62500  Biso   1.000  C
  C140     1.0000 0.84529  0.25000  0.62500  Biso   1.000  C
  C141     1.0000 0.68866  0.69985  0.12470  Biso   1.000  C
  H113     1.0000 0.66820  0.66460  0.12350  Biso   1.000  H
  C142     1.0000 0.74914  0.69810  0.12606  Biso   1.000  C
  H114     1.0000 0.76840  0.66230  0.12770  Biso   1.000  H
  C143     1.0000 0.87800  0.79917  0.09673  Biso   1.000  C
  H115     1.0000 0.85880  0.83300  0.07660  Biso   1.000  H
  C144     1.0000 0.93861  0.79719  0.09892  Biso   1.000  C
  H116     1.0000 0.95910  0.83080  0.08110  Biso   1.000  H
  C145     1.0000 0.18826  0.80020  0.13074  Biso   1.000  C
  H117     1.0000 0.16760  0.83520  0.13470  Biso   1.000  H
  C146     1.0000 0.24894  0.80215  0.13106  Biso   1.000  C
  H118     1.0000 0.26840  0.83780  0.13530  Biso   1.000  H
  C147     1.0000 0.37690  0.70491  0.16784  Biso   1.000  C
  H119     1.0000 0.35750  0.67340  0.19660  Biso   1.000  H
  C148     1.0000 0.43758  0.70701  0.16756  Biso   1.000  C
  H120     1.0000 0.45800  0.67700  0.19860  Biso   1.000  H
  C149     1.0000 0.68866  0.80015  0.12530  Biso   1.000  C
  H121     1.0000 0.66820  0.83540  0.12650  Biso   1.000  H
  C150     1.0000 0.74914  0.80190  0.12394  Biso   1.000  C
  H122     1.0000 0.76840  0.83770  0.12230  Biso   1.000  H
  C151     1.0000 0.87800  0.70083  0.15327  Biso   1.000  C
  H123     1.0000 0.85880  0.66700  0.17340  Biso   1.000  H
  C152     1.0000 0.93861  0.70281  0.15108  Biso   1.000  C
  H124     1.0000 0.95910  0.66920  0.16890  Biso   1.000  H
  C153     1.0000 0.18826  0.69980  0.11926  Biso   1.000  C
  H125     1.0000 0.16760  0.66480  0.11530  Biso   1.000  H
  C154     1.0000 0.24894  0.69785  0.11894  Biso   1.000  C
  H126     1.0000 0.26840  0.66220  0.11470  Biso   1.000  H
  C155     1.0000 0.37690  0.79509  0.08216  Biso   1.000  C
  H127     1.0000 0.35750  0.82660  0.05340  Biso   1.000  H
  C156     1.0000 0.43758  0.79299  0.08244  Biso   1.000  C
  H128     1.0000 0.45800  0.82300  0.05140  Biso   1.000  H
  Zn15     1.0000 0.56361  0.75000  0.12500  Biso   1.000  Zn
  Zn16     1.0000 0.06558  0.75000  0.12500  Biso   1.000  Zn
  N29      1.0000 0.65797  0.75000  0.12500  Biso   1.000  N
  N30      1.0000 0.96925  0.75000  0.12500  Biso   1.000  N
  N31      1.0000 0.15821  0.75000  0.12500  Biso   1.000  N
  N32      1.0000 0.46807  0.75000  0.12500  Biso   1.000  N
  C157     1.0000 0.78123  0.75000  0.12500  Biso   1.000  C
  C158     1.0000 0.84615  0.75000  0.12500  Biso   1.000  C
  C159     1.0000 0.28046  0.75000  0.12500  Biso   1.000  C
  C160     1.0000 0.34529  0.75000  0.12500  Biso   1.000  C
