data_image0
_cell_length_a       10.1443
_cell_length_b       8.2889
_cell_length_c       11.1596
_cell_angle_alpha    90
_cell_angle_beta     90
_cell_angle_gamma    90

_symmetry_space_group_name_H-M    "P 1"
_symmetry_int_tables_number       1

loop_
  _symmetry_equiv_pos_as_xyz
  'x, y, z'

loop_
  _atom_site_label
  _atom_site_occupancy
  _atom_site_fract_x
  _atom_site_fract_y
  _atom_site_fract_z
  _atom_site_thermal_displace_type
  _atom_site_B_iso_or_equiv
  _atom_site_type_symbol
  Cu1      1.0000 0.20469  0.00061  0.26613  Biso   1.000  Cu
  O1       1.0000 0.18340  0.10460  0.42690  Biso   1.000  O
  O2       1.0000 0.24380  0.11240  0.61630  Biso   1.000  O
  C1       1.0000 0.23130  0.04070  0.51850  Biso   1.000  C
  H1       1.0000 0.25910  0.93400  0.51370  Biso   1.000  H
  Cu2      1.0000 0.29531  0.99939  0.76613  Biso   1.000  Cu
  O3       1.0000 0.31660  0.89540  0.92690  Biso   1.000  O
  O4       1.0000 0.25620  0.88760  0.11630  Biso   1.000  O
  C2       1.0000 0.26870  0.95930  0.01850  Biso   1.000  C
  H2       1.0000 0.24090  0.06600  0.01370  Biso   1.000  H
  Cu3      1.0000 0.79531  0.50061  0.23387  Biso   1.000  Cu
  O5       1.0000 0.81660  0.60460  0.07310  Biso   1.000  O
  O6       1.0000 0.75620  0.61240  0.88370  Biso   1.000  O
  C3       1.0000 0.76870  0.54070  0.98150  Biso   1.000  C
  H3       1.0000 0.74090  0.43400  0.98630  Biso   1.000  H
  Cu4      1.0000 0.70469  0.49939  0.73387  Biso   1.000  Cu
  O7       1.0000 0.68340  0.39540  0.57310  Biso   1.000  O
  O8       1.0000 0.74380  0.38760  0.38370  Biso   1.000  O
  C4       1.0000 0.73130  0.45930  0.48150  Biso   1.000  C
  H4       1.0000 0.75910  0.56600  0.48630  Biso   1.000  H
