data_image0
_cell_length_a       10.141
_cell_length_b       8.2329
_cell_length_c       11.099
_cell_angle_alpha    90
_cell_angle_beta     90
_cell_angle_gamma    90

_symmetry_space_group_name_H-M    "P 1"
_symmetry_int_tables_number       1

loop_
  _symmetry_equiv_pos_as_xyz
  'x, y, z'

loop_
  _atom_site_label
  _atom_site_occupancy
  _atom_site_fract_x
  _atom_site_fract_y
  _atom_site_fract_z
  _atom_site_thermal_displace_type
  _atom_site_B_iso_or_equiv
  _atom_site_type_symbol
  Cu1      1.0000 0.20497  0.00106  0.26598  Biso   1.000  Cu
  O1       1.0000 0.18330  0.10350  0.42760  Biso   1.000  O
  O2       1.0000 0.24360  0.11130  0.61610  Biso   1.000  O
  C1       1.0000 0.22990  0.04000  0.51850  Biso   1.000  C
  H1       1.0000 0.25650  0.93200  0.51370  Biso   1.000  H
  Cu2      1.0000 0.29503  0.99894  0.76598  Biso   1.000  Cu
  O3       1.0000 0.31670  0.89650  0.92760  Biso   1.000  O
  O4       1.0000 0.25640  0.88870  0.11610  Biso   1.000  O
  C2       1.0000 0.27010  0.96000  0.01850  Biso   1.000  C
  H2       1.0000 0.24350  0.06800  0.01370  Biso   1.000  H
  Cu3      1.0000 0.79503  0.50106  0.23402  Biso   1.000  Cu
  O5       1.0000 0.81670  0.60350  0.07240  Biso   1.000  O
  O6       1.0000 0.75640  0.61130  0.88390  Biso   1.000  O
  C3       1.0000 0.77010  0.54000  0.98150  Biso   1.000  C
  H3       1.0000 0.74350  0.43200  0.98630  Biso   1.000  H
  Cu4      1.0000 0.70497  0.49894  0.73402  Biso   1.000  Cu
  O7       1.0000 0.68330  0.39650  0.57240  Biso   1.000  O
  O8       1.0000 0.74360  0.38870  0.38390  Biso   1.000  O
  C4       1.0000 0.72990  0.46000  0.48150  Biso   1.000  C
  H4       1.0000 0.75650  0.56800  0.48630  Biso   1.000  H
