data_image0
_cell_length_a       10.165
_cell_length_b       8.2955
_cell_length_c       11.1811
_cell_angle_alpha    90
_cell_angle_beta     90
_cell_angle_gamma    90

_symmetry_space_group_name_H-M    "P 1"
_symmetry_int_tables_number       1

loop_
  _symmetry_equiv_pos_as_xyz
  'x, y, z'

loop_
  _atom_site_label
  _atom_site_occupancy
  _atom_site_fract_x
  _atom_site_fract_y
  _atom_site_fract_z
  _atom_site_thermal_displace_type
  _atom_site_B_iso_or_equiv
  _atom_site_type_symbol
  Cu1      1.0000 0.20486  0.00078  0.26590  Biso   1.000  Cu
  O1       1.0000 0.18380  0.10440  0.42670  Biso   1.000  O
  O2       1.0000 0.24350  0.11200  0.61590  Biso   1.000  O
  C1       1.0000 0.23090  0.04050  0.51860  Biso   1.000  C
  H1       1.0000 0.25810  0.93360  0.51390  Biso   1.000  H
  Cu2      1.0000 0.29514  0.99922  0.76590  Biso   1.000  Cu
  O3       1.0000 0.31620  0.89560  0.92670  Biso   1.000  O
  O4       1.0000 0.25650  0.88800  0.11590  Biso   1.000  O
  C2       1.0000 0.26910  0.95950  0.01860  Biso   1.000  C
  H2       1.0000 0.24190  0.06640  0.01390  Biso   1.000  H
  Cu3      1.0000 0.79514  0.50078  0.23410  Biso   1.000  Cu
  O5       1.0000 0.81620  0.60440  0.07330  Biso   1.000  O
  O6       1.0000 0.75650  0.61200  0.88410  Biso   1.000  O
  C3       1.0000 0.76910  0.54050  0.98140  Biso   1.000  C
  H3       1.0000 0.74190  0.43360  0.98610  Biso   1.000  H
  Cu4      1.0000 0.70486  0.49922  0.73410  Biso   1.000  Cu
  O7       1.0000 0.68380  0.39560  0.57330  Biso   1.000  O
  O8       1.0000 0.74350  0.38800  0.38410  Biso   1.000  O
  C4       1.0000 0.73090  0.45950  0.48140  Biso   1.000  C
  H4       1.0000 0.75810  0.56640  0.48610  Biso   1.000  H
