data_image0
_cell_length_a       16.5926
_cell_length_b       11.9198
_cell_length_c       27.8084
_cell_angle_alpha    90
_cell_angle_beta     90.558
_cell_angle_gamma    90

_symmetry_space_group_name_H-M    "P 1"
_symmetry_int_tables_number       1

loop_
  _symmetry_equiv_pos_as_xyz
  'x, y, z'

loop_
  _atom_site_label
  _atom_site_occupancy
  _atom_site_fract_x
  _atom_site_fract_y
  _atom_site_fract_z
  _atom_site_thermal_displace_type
  _atom_site_B_iso_or_equiv
  _atom_site_type_symbol
  N1       1.0000 0.43530  0.05020  0.78572  Biso   1.000  N
  N2       1.0000 0.54410  0.67180  0.96950  Biso   1.000  N
  N3       1.0000 0.56040  0.70750  0.21446  Biso   1.000  N
  C1       1.0000 0.47150  0.97260  0.81382  Biso   1.000  C
  H1       1.0000 0.52870  0.97100  0.81540  Biso   1.000  H
  C2       1.0000 0.35420  0.05390  0.78460  Biso   1.000  C
  H2       1.0000 0.32850  0.10980  0.76550  Biso   1.000  H
  C3       1.0000 0.30650  0.97910  0.81030  Biso   1.000  C
  H3       1.0000 0.24940  0.98340  0.80850  Biso   1.000  H
  C4       1.0000 0.34410  0.89790  0.83860  Biso   1.000  C
  H4       1.0000 0.31320  0.84560  0.85640  Biso   1.000  H
  C5       1.0000 0.42860  0.89490  0.84050  Biso   1.000  C
  C6       1.0000 0.47010  0.81300  0.86950  Biso   1.000  C
  C7       1.0000 0.50380  0.74490  0.89380  Biso   1.000  C
  C8       1.0000 0.54500  0.66070  0.92190  Biso   1.000  C
  C9       1.0000 0.58480  0.57330  0.89830  Biso   1.000  C
  H5       1.0000 0.58360  0.56830  0.86420  Biso   1.000  H
  C10      1.0000 0.62520  0.49560  0.92510  Biso   1.000  C
  H6       1.0000 0.65390  0.43650  0.91000  Biso   1.000  H
  C11      1.0000 0.62390  0.50430  0.97550  Biso   1.000  C
  H7       1.0000 0.64980  0.45000  0.99530  Biso   1.000  H
  C12      1.0000 0.58400  0.59340  0.99500  Biso   1.000  C
  C13      1.0000 0.58230  0.60560  0.04700  Biso   1.000  C
  C14      1.0000 0.58490  0.60950  0.08960  Biso   1.000  C
  C15      1.0000 0.58910  0.61270  0.14170  Biso   1.000  C
  C16      1.0000 0.62710  0.52590  0.16700  Biso   1.000  C
  H8       1.0000 0.64920  0.46320  0.15060  Biso   1.000  H
  C17      1.0000 0.63160  0.53420  0.21630  Biso   1.000  C
  H9       1.0000 0.65800  0.47740  0.23460  Biso   1.000  H
  C18      1.0000 0.59780  0.62490  0.23920  Biso   1.000  C
  H10      1.0000 0.60090  0.62940  0.27320  Biso   1.000  H
  C19      1.0000 0.55700  0.70040  0.16681  Biso   1.000  C
  H11      1.0000 0.53100  0.75900  0.14940  Biso   1.000  H
  N4       1.0000 0.56470  0.05020  0.71428  Biso   1.000  N
  N5       1.0000 0.45590  0.67180  0.53050  Biso   1.000  N
  N6       1.0000 0.43960  0.70750  0.28554  Biso   1.000  N
  C20      1.0000 0.52850  0.97260  0.68618  Biso   1.000  C
  H12      1.0000 0.47130  0.97100  0.68460  Biso   1.000  H
  C21      1.0000 0.64580  0.05390  0.71540  Biso   1.000  C
  H13      1.0000 0.67150  0.10980  0.73450  Biso   1.000  H
  C22      1.0000 0.69350  0.97910  0.68970  Biso   1.000  C
  H14      1.0000 0.75060  0.98340  0.69150  Biso   1.000  H
  C23      1.0000 0.65590  0.89790  0.66140  Biso   1.000  C
  H15      1.0000 0.68680  0.84560  0.64360  Biso   1.000  H
  C24      1.0000 0.57140  0.89490  0.65950  Biso   1.000  C
  C25      1.0000 0.52990  0.81300  0.63050  Biso   1.000  C
  C26      1.0000 0.49620  0.74490  0.60620  Biso   1.000  C
  C27      1.0000 0.45500  0.66070  0.57810  Biso   1.000  C
  C28      1.0000 0.41520  0.57330  0.60170  Biso   1.000  C
  H16      1.0000 0.41640  0.56830  0.63580  Biso   1.000  H
  C29      1.0000 0.37480  0.49560  0.57490  Biso   1.000  C
  H17      1.0000 0.34610  0.43650  0.59000  Biso   1.000  H
  C30      1.0000 0.37610  0.50430  0.52450  Biso   1.000  C
  H18      1.0000 0.35020  0.45000  0.50470  Biso   1.000  H
  C31      1.0000 0.41600  0.59340  0.50500  Biso   1.000  C
  C32      1.0000 0.41770  0.60560  0.45300  Biso   1.000  C
  C33      1.0000 0.41510  0.60950  0.41040  Biso   1.000  C
  C34      1.0000 0.41090  0.61270  0.35830  Biso   1.000  C
  C35      1.0000 0.37290  0.52590  0.33300  Biso   1.000  C
  H19      1.0000 0.35080  0.46320  0.34940  Biso   1.000  H
  C36      1.0000 0.36840  0.53420  0.28370  Biso   1.000  C
  H20      1.0000 0.34200  0.47740  0.26540  Biso   1.000  H
  C37      1.0000 0.40220  0.62490  0.26080  Biso   1.000  C
  H21      1.0000 0.39910  0.62940  0.22680  Biso   1.000  H
  C38      1.0000 0.44300  0.70040  0.33319  Biso   1.000  C
  H22      1.0000 0.46900  0.75900  0.35060  Biso   1.000  H
  N7       1.0000 0.56470  0.94980  0.21428  Biso   1.000  N
  N8       1.0000 0.45590  0.32820  0.03050  Biso   1.000  N
  N9       1.0000 0.43960  0.29250  0.78554  Biso   1.000  N
  C39      1.0000 0.52850  0.02740  0.18618  Biso   1.000  C
  H23      1.0000 0.47130  0.02900  0.18460  Biso   1.000  H
  C40      1.0000 0.64580  0.94610  0.21540  Biso   1.000  C
  H24      1.0000 0.67150  0.89020  0.23450  Biso   1.000  H
  C41      1.0000 0.69350  0.02090  0.18970  Biso   1.000  C
  H25      1.0000 0.75060  0.01660  0.19150  Biso   1.000  H
  C42      1.0000 0.65590  0.10210  0.16140  Biso   1.000  C
  H26      1.0000 0.68680  0.15440  0.14360  Biso   1.000  H
  C43      1.0000 0.57140  0.10510  0.15950  Biso   1.000  C
  C44      1.0000 0.52990  0.18700  0.13050  Biso   1.000  C
  C45      1.0000 0.49620  0.25510  0.10620  Biso   1.000  C
  C46      1.0000 0.45500  0.33930  0.07810  Biso   1.000  C
  C47      1.0000 0.41520  0.42670  0.10170  Biso   1.000  C
  H27      1.0000 0.41640  0.43170  0.13580  Biso   1.000  H
  C48      1.0000 0.37480  0.50440  0.07490  Biso   1.000  C
  H28      1.0000 0.34610  0.56350  0.09000  Biso   1.000  H
  C49      1.0000 0.37610  0.49570  0.02450  Biso   1.000  C
  H29      1.0000 0.35020  0.55000  0.00470  Biso   1.000  H
  C50      1.0000 0.41600  0.40660  0.00500  Biso   1.000  C
  C51      1.0000 0.41770  0.39440  0.95300  Biso   1.000  C
  C52      1.0000 0.41510  0.39050  0.91040  Biso   1.000  C
  C53      1.0000 0.41090  0.38730  0.85830  Biso   1.000  C
  C54      1.0000 0.37290  0.47410  0.83300  Biso   1.000  C
  H30      1.0000 0.35080  0.53680  0.84940  Biso   1.000  H
  C55      1.0000 0.36840  0.46580  0.78370  Biso   1.000  C
  H31      1.0000 0.34200  0.52260  0.76540  Biso   1.000  H
  C56      1.0000 0.40220  0.37510  0.76080  Biso   1.000  C
  H32      1.0000 0.39910  0.37060  0.72680  Biso   1.000  H
  C57      1.0000 0.44300  0.29960  0.83319  Biso   1.000  C
  H33      1.0000 0.46900  0.24100  0.85060  Biso   1.000  H
  N10      1.0000 0.43530  0.94980  0.28572  Biso   1.000  N
  N11      1.0000 0.54410  0.32820  0.46950  Biso   1.000  N
  N12      1.0000 0.56040  0.29250  0.71446  Biso   1.000  N
  C58      1.0000 0.47150  0.02740  0.31382  Biso   1.000  C
  H34      1.0000 0.52870  0.02900  0.31540  Biso   1.000  H
  C59      1.0000 0.35420  0.94610  0.28460  Biso   1.000  C
  H35      1.0000 0.32850  0.89020  0.26550  Biso   1.000  H
  C60      1.0000 0.30650  0.02090  0.31030  Biso   1.000  C
  H36      1.0000 0.24940  0.01660  0.30850  Biso   1.000  H
  C61      1.0000 0.34410  0.10210  0.33860  Biso   1.000  C
  H37      1.0000 0.31320  0.15440  0.35640  Biso   1.000  H
  C62      1.0000 0.42860  0.10510  0.34050  Biso   1.000  C
  C63      1.0000 0.47010  0.18700  0.36950  Biso   1.000  C
  C64      1.0000 0.50380  0.25510  0.39380  Biso   1.000  C
  C65      1.0000 0.54500  0.33930  0.42190  Biso   1.000  C
  C66      1.0000 0.58480  0.42670  0.39830  Biso   1.000  C
  H38      1.0000 0.58360  0.43170  0.36420  Biso   1.000  H
  C67      1.0000 0.62520  0.50440  0.42510  Biso   1.000  C
  H39      1.0000 0.65390  0.56350  0.41000  Biso   1.000  H
  C68      1.0000 0.62390  0.49570  0.47550  Biso   1.000  C
  H40      1.0000 0.64980  0.55000  0.49530  Biso   1.000  H
  C69      1.0000 0.58400  0.40660  0.49500  Biso   1.000  C
  C70      1.0000 0.58230  0.39440  0.54700  Biso   1.000  C
  C71      1.0000 0.58490  0.39050  0.58960  Biso   1.000  C
  C72      1.0000 0.58910  0.38730  0.64170  Biso   1.000  C
  C73      1.0000 0.62710  0.47410  0.66700  Biso   1.000  C
  H41      1.0000 0.64920  0.53680  0.65060  Biso   1.000  H
  C74      1.0000 0.63160  0.46580  0.71630  Biso   1.000  C
  H42      1.0000 0.65800  0.52260  0.73460  Biso   1.000  H
  C75      1.0000 0.59780  0.37510  0.73920  Biso   1.000  C
  H43      1.0000 0.60090  0.37060  0.77320  Biso   1.000  H
  C76      1.0000 0.55700  0.29960  0.66681  Biso   1.000  C
  H44      1.0000 0.53100  0.24100  0.64940  Biso   1.000  H
  Cu1      1.0000 0.50000  0.16823  0.75000  Biso   1.000  Cu
  Cu2      1.0000 0.50000  0.83177  0.25000  Biso   1.000  Cu
  N13      1.0000 0.93530  0.55020  0.78572  Biso   1.000  N
  N14      1.0000 0.04410  0.17180  0.96950  Biso   1.000  N
  N15      1.0000 0.06040  0.20750  0.21446  Biso   1.000  N
  C77      1.0000 0.97150  0.47260  0.81382  Biso   1.000  C
  H45      1.0000 0.02870  0.47100  0.81540  Biso   1.000  H
  C78      1.0000 0.85420  0.55390  0.78460  Biso   1.000  C
  H46      1.0000 0.82850  0.60980  0.76550  Biso   1.000  H
  C79      1.0000 0.80650  0.47910  0.81030  Biso   1.000  C
  H47      1.0000 0.74940  0.48340  0.80850  Biso   1.000  H
  C80      1.0000 0.84410  0.39790  0.83860  Biso   1.000  C
  H48      1.0000 0.81320  0.34560  0.85640  Biso   1.000  H
  C81      1.0000 0.92860  0.39490  0.84050  Biso   1.000  C
  C82      1.0000 0.97010  0.31300  0.86950  Biso   1.000  C
  C83      1.0000 0.00380  0.24490  0.89380  Biso   1.000  C
  C84      1.0000 0.04500  0.16070  0.92190  Biso   1.000  C
  C85      1.0000 0.08480  0.07330  0.89830  Biso   1.000  C
  H49      1.0000 0.08360  0.06830  0.86420  Biso   1.000  H
  C86      1.0000 0.12520  0.99560  0.92510  Biso   1.000  C
  H50      1.0000 0.15390  0.93650  0.91000  Biso   1.000  H
  C87      1.0000 0.12390  0.00430  0.97550  Biso   1.000  C
  H51      1.0000 0.14980  0.95000  0.99530  Biso   1.000  H
  C88      1.0000 0.08400  0.09340  0.99500  Biso   1.000  C
  C89      1.0000 0.08230  0.10560  0.04700  Biso   1.000  C
  C90      1.0000 0.08490  0.10950  0.08960  Biso   1.000  C
  C91      1.0000 0.08910  0.11270  0.14170  Biso   1.000  C
  C92      1.0000 0.12710  0.02590  0.16700  Biso   1.000  C
  H52      1.0000 0.14920  0.96320  0.15060  Biso   1.000  H
  C93      1.0000 0.13160  0.03420  0.21630  Biso   1.000  C
  H53      1.0000 0.15800  0.97740  0.23460  Biso   1.000  H
  C94      1.0000 0.09780  0.12490  0.23920  Biso   1.000  C
  H54      1.0000 0.10090  0.12940  0.27320  Biso   1.000  H
  C95      1.0000 0.05700  0.20040  0.16681  Biso   1.000  C
  H55      1.0000 0.03100  0.25900  0.14940  Biso   1.000  H
  N16      1.0000 0.06470  0.55020  0.71428  Biso   1.000  N
  N17      1.0000 0.95590  0.17180  0.53050  Biso   1.000  N
  N18      1.0000 0.93960  0.20750  0.28554  Biso   1.000  N
  C96      1.0000 0.02850  0.47260  0.68618  Biso   1.000  C
  H56      1.0000 0.97130  0.47100  0.68460  Biso   1.000  H
  C97      1.0000 0.14580  0.55390  0.71540  Biso   1.000  C
  H57      1.0000 0.17150  0.60980  0.73450  Biso   1.000  H
  C98      1.0000 0.19350  0.47910  0.68970  Biso   1.000  C
  H58      1.0000 0.25060  0.48340  0.69150  Biso   1.000  H
  C99      1.0000 0.15590  0.39790  0.66140  Biso   1.000  C
  H59      1.0000 0.18680  0.34560  0.64360  Biso   1.000  H
  C100     1.0000 0.07140  0.39490  0.65950  Biso   1.000  C
  C101     1.0000 0.02990  0.31300  0.63050  Biso   1.000  C
  C102     1.0000 0.99620  0.24490  0.60620  Biso   1.000  C
  C103     1.0000 0.95500  0.16070  0.57810  Biso   1.000  C
  C104     1.0000 0.91520  0.07330  0.60170  Biso   1.000  C
  H60      1.0000 0.91640  0.06830  0.63580  Biso   1.000  H
  C105     1.0000 0.87480  0.99560  0.57490  Biso   1.000  C
  H61      1.0000 0.84610  0.93650  0.59000  Biso   1.000  H
  C106     1.0000 0.87610  0.00430  0.52450  Biso   1.000  C
  H62      1.0000 0.85020  0.95000  0.50470  Biso   1.000  H
  C107     1.0000 0.91600  0.09340  0.50500  Biso   1.000  C
  C108     1.0000 0.91770  0.10560  0.45300  Biso   1.000  C
  C109     1.0000 0.91510  0.10950  0.41040  Biso   1.000  C
  C110     1.0000 0.91090  0.11270  0.35830  Biso   1.000  C
  C111     1.0000 0.87290  0.02590  0.33300  Biso   1.000  C
  H63      1.0000 0.85080  0.96320  0.34940  Biso   1.000  H
  C112     1.0000 0.86840  0.03420  0.28370  Biso   1.000  C
  H64      1.0000 0.84200  0.97740  0.26540  Biso   1.000  H
  C113     1.0000 0.90220  0.12490  0.26080  Biso   1.000  C
  H65      1.0000 0.89910  0.12940  0.22680  Biso   1.000  H
  C114     1.0000 0.94300  0.20040  0.33319  Biso   1.000  C
  H66      1.0000 0.96900  0.25900  0.35060  Biso   1.000  H
  N19      1.0000 0.06470  0.44980  0.21428  Biso   1.000  N
  N20      1.0000 0.95590  0.82820  0.03050  Biso   1.000  N
  N21      1.0000 0.93960  0.79250  0.78554  Biso   1.000  N
  C115     1.0000 0.02850  0.52740  0.18618  Biso   1.000  C
  H67      1.0000 0.97130  0.52900  0.18460  Biso   1.000  H
  C116     1.0000 0.14580  0.44610  0.21540  Biso   1.000  C
  H68      1.0000 0.17150  0.39020  0.23450  Biso   1.000  H
  C117     1.0000 0.19350  0.52090  0.18970  Biso   1.000  C
  H69      1.0000 0.25060  0.51660  0.19150  Biso   1.000  H
  C118     1.0000 0.15590  0.60210  0.16140  Biso   1.000  C
  H70      1.0000 0.18680  0.65440  0.14360  Biso   1.000  H
  C119     1.0000 0.07140  0.60510  0.15950  Biso   1.000  C
  C120     1.0000 0.02990  0.68700  0.13050  Biso   1.000  C
  C121     1.0000 0.99620  0.75510  0.10620  Biso   1.000  C
  C122     1.0000 0.95500  0.83930  0.07810  Biso   1.000  C
  C123     1.0000 0.91520  0.92670  0.10170  Biso   1.000  C
  H71      1.0000 0.91640  0.93170  0.13580  Biso   1.000  H
  C124     1.0000 0.87480  0.00440  0.07490  Biso   1.000  C
  H72      1.0000 0.84610  0.06350  0.09000  Biso   1.000  H
  C125     1.0000 0.87610  0.99570  0.02450  Biso   1.000  C
  H73      1.0000 0.85020  0.05000  0.00470  Biso   1.000  H
  C126     1.0000 0.91600  0.90660  0.00500  Biso   1.000  C
  C127     1.0000 0.91770  0.89440  0.95300  Biso   1.000  C
  C128     1.0000 0.91510  0.89050  0.91040  Biso   1.000  C
  C129     1.0000 0.91090  0.88730  0.85830  Biso   1.000  C
  C130     1.0000 0.87290  0.97410  0.83300  Biso   1.000  C
  H74      1.0000 0.85080  0.03680  0.84940  Biso   1.000  H
  C131     1.0000 0.86840  0.96580  0.78370  Biso   1.000  C
  H75      1.0000 0.84200  0.02260  0.76540  Biso   1.000  H
  C132     1.0000 0.90220  0.87510  0.76080  Biso   1.000  C
  H76      1.0000 0.89910  0.87060  0.72680  Biso   1.000  H
  C133     1.0000 0.94300  0.79960  0.83319  Biso   1.000  C
  H77      1.0000 0.96900  0.74100  0.85060  Biso   1.000  H
  N22      1.0000 0.93530  0.44980  0.28572  Biso   1.000  N
  N23      1.0000 0.04410  0.82820  0.46950  Biso   1.000  N
  N24      1.0000 0.06040  0.79250  0.71446  Biso   1.000  N
  C134     1.0000 0.97150  0.52740  0.31382  Biso   1.000  C
  H78      1.0000 0.02870  0.52900  0.31540  Biso   1.000  H
  C135     1.0000 0.85420  0.44610  0.28460  Biso   1.000  C
  H79      1.0000 0.82850  0.39020  0.26550  Biso   1.000  H
  C136     1.0000 0.80650  0.52090  0.31030  Biso   1.000  C
  H80      1.0000 0.74940  0.51660  0.30850  Biso   1.000  H
  C137     1.0000 0.84410  0.60210  0.33860  Biso   1.000  C
  H81      1.0000 0.81320  0.65440  0.35640  Biso   1.000  H
  C138     1.0000 0.92860  0.60510  0.34050  Biso   1.000  C
  C139     1.0000 0.97010  0.68700  0.36950  Biso   1.000  C
  C140     1.0000 0.00380  0.75510  0.39380  Biso   1.000  C
  C141     1.0000 0.04500  0.83930  0.42190  Biso   1.000  C
  C142     1.0000 0.08480  0.92670  0.39830  Biso   1.000  C
  H82      1.0000 0.08360  0.93170  0.36420  Biso   1.000  H
  C143     1.0000 0.12520  0.00440  0.42510  Biso   1.000  C
  H83      1.0000 0.15390  0.06350  0.41000  Biso   1.000  H
  C144     1.0000 0.12390  0.99570  0.47550  Biso   1.000  C
  H84      1.0000 0.14980  0.05000  0.49530  Biso   1.000  H
  C145     1.0000 0.08400  0.90660  0.49500  Biso   1.000  C
  C146     1.0000 0.08230  0.89440  0.54700  Biso   1.000  C
  C147     1.0000 0.08490  0.89050  0.58960  Biso   1.000  C
  C148     1.0000 0.08910  0.88730  0.64170  Biso   1.000  C
  C149     1.0000 0.12710  0.97410  0.66700  Biso   1.000  C
  H85      1.0000 0.14920  0.03680  0.65060  Biso   1.000  H
  C150     1.0000 0.13160  0.96580  0.71630  Biso   1.000  C
  H86      1.0000 0.15800  0.02260  0.73460  Biso   1.000  H
  C151     1.0000 0.09780  0.87510  0.73920  Biso   1.000  C
  H87      1.0000 0.10090  0.87060  0.77320  Biso   1.000  H
  C152     1.0000 0.05700  0.79960  0.66681  Biso   1.000  C
  H88      1.0000 0.03100  0.74100  0.64940  Biso   1.000  H
  Cu3      1.0000 0.00000  0.66823  0.75000  Biso   1.000  Cu
  Cu4      1.0000 0.00000  0.33177  0.25000  Biso   1.000  Cu
