data_image0
_cell_length_a       19.0345
_cell_length_b       27.688
_cell_length_c       12.1273
_cell_angle_alpha    90
_cell_angle_beta     105.293
_cell_angle_gamma    90

_symmetry_space_group_name_H-M    "P 1"
_symmetry_int_tables_number       1

loop_
  _symmetry_equiv_pos_as_xyz
  'x, y, z'

loop_
  _atom_site_label
  _atom_site_occupancy
  _atom_site_fract_x
  _atom_site_fract_y
  _atom_site_fract_z
  _atom_site_thermal_displace_type
  _atom_site_B_iso_or_equiv
  _atom_site_type_symbol
  C1       1.0000 0.87360  0.21360  0.92340  Biso   1.000  C
  C2       1.0000 0.81590  0.27560  0.03040  Biso   1.000  C
  C3       1.0000 0.80840  0.23120  0.96610  Biso   1.000  C
  C4       1.0000 0.74370  0.20600  0.93960  Biso   1.000  C
  C5       1.0000 0.88530  0.35640  0.97500  Biso   1.000  C
  H1       1.0000 0.84020  0.35130  0.91510  Biso   1.000  H
  H2       1.0000 0.92590  0.36120  0.94080  Biso   1.000  H
  H3       1.0000 0.88010  0.38510  0.02010  Biso   1.000  H
  C6       1.0000 0.70750  0.17150  0.71950  Biso   1.000  C
  H4       1.0000 0.66290  0.19050  0.71050  Biso   1.000  H
  H5       1.0000 0.69740  0.14370  0.66760  Biso   1.000  H
  H6       1.0000 0.74520  0.19160  0.70120  Biso   1.000  H
  C7       1.0000 0.01740  0.10500  0.76510  Biso   1.000  C
  C8       1.0000 0.07200  0.02430  0.84010  Biso   1.000  C
  C9       1.0000 0.01890  0.04970  0.76210  Biso   1.000  C
  C10      1.0000 0.96320  0.02490  0.68190  Biso   1.000  C
  C11      1.0000 0.10620  0.06970  0.04700  Biso   1.000  C
  H7       1.0000 0.07540  0.09870  0.03360  Biso   1.000  H
  H8       1.0000 0.14590  0.07410  0.11650  Biso   1.000  H
  H9       1.0000 0.07680  0.04170  0.05620  Biso   1.000  H
  C12      1.0000 0.83260  0.07970  0.64680  Biso   1.000  C
  H10      1.0000 0.80210  0.05250  0.65770  Biso   1.000  H
  H11      1.0000 0.80180  0.10460  0.60030  Biso   1.000  H
  H12      1.0000 0.85770  0.09330  0.72140  Biso   1.000  H
  O1       1.0000 0.92330  0.19160  0.98800  Biso   1.000  O
  O2       1.0000 0.05560  0.12790  0.71520  Biso   1.000  O
  O3       1.0000 0.97750  0.12270  0.82200  Biso   1.000  O
  O4       1.0000 0.86800  0.22140  0.82130  Biso   1.000  O
  Pb1      1.0000 0.98980  0.20648  0.81002  Biso   1.000  Pb
  S1       1.0000 0.90310  0.30473  0.06700  Biso   1.000  S
  S2       1.0000 0.73920  0.15018  0.86750  Biso   1.000  S
  S3       1.0000 0.14170  0.06061  0.93340  Biso   1.000  S
  S4       1.0000 0.89860  0.05904  0.57540  Biso   1.000  S
  C13      1.0000 0.62640  0.71360  0.07660  Biso   1.000  C
  C14      1.0000 0.68410  0.77560  0.96960  Biso   1.000  C
  C15      1.0000 0.69160  0.73120  0.03390  Biso   1.000  C
  C16      1.0000 0.75630  0.70600  0.06040  Biso   1.000  C
  C17      1.0000 0.61470  0.85640  0.02500  Biso   1.000  C
  H13      1.0000 0.65980  0.85130  0.08490  Biso   1.000  H
  H14      1.0000 0.57410  0.86120  0.05920  Biso   1.000  H
  H15      1.0000 0.61990  0.88510  0.97990  Biso   1.000  H
  C18      1.0000 0.79250  0.67150  0.28050  Biso   1.000  C
  H16      1.0000 0.83710  0.69050  0.28950  Biso   1.000  H
  H17      1.0000 0.80260  0.64370  0.33240  Biso   1.000  H
  H18      1.0000 0.75480  0.69160  0.29880  Biso   1.000  H
  C19      1.0000 0.48260  0.60500  0.23490  Biso   1.000  C
  C20      1.0000 0.42800  0.52430  0.15990  Biso   1.000  C
  C21      1.0000 0.48110  0.54970  0.23790  Biso   1.000  C
  C22      1.0000 0.53680  0.52490  0.31810  Biso   1.000  C
  C23      1.0000 0.39380  0.56970  0.95300  Biso   1.000  C
  H19      1.0000 0.42460  0.59870  0.96640  Biso   1.000  H
  H20      1.0000 0.35410  0.57410  0.88350  Biso   1.000  H
  H21      1.0000 0.42320  0.54170  0.94380  Biso   1.000  H
  C24      1.0000 0.66740  0.57970  0.35320  Biso   1.000  C
  H22      1.0000 0.69790  0.55250  0.34230  Biso   1.000  H
  H23      1.0000 0.69820  0.60460  0.39970  Biso   1.000  H
  H24      1.0000 0.64230  0.59330  0.27860  Biso   1.000  H
  O5       1.0000 0.57670  0.69160  0.01200  Biso   1.000  O
  O6       1.0000 0.44440  0.62790  0.28480  Biso   1.000  O
  O7       1.0000 0.52250  0.62270  0.17800  Biso   1.000  O
  O8       1.0000 0.63200  0.72140  0.17870  Biso   1.000  O
  Pb2      1.0000 0.51020  0.70648  0.18998  Biso   1.000  Pb
  S5       1.0000 0.59690  0.80473  0.93300  Biso   1.000  S
  S6       1.0000 0.76080  0.65018  0.13250  Biso   1.000  S
  S7       1.0000 0.35830  0.56061  0.06660  Biso   1.000  S
  S8       1.0000 0.60140  0.55904  0.42460  Biso   1.000  S
  C25      1.0000 0.62640  0.28640  0.07660  Biso   1.000  C
  C26      1.0000 0.68410  0.22440  0.96960  Biso   1.000  C
  C27      1.0000 0.69160  0.26880  0.03390  Biso   1.000  C
  C28      1.0000 0.75630  0.29400  0.06040  Biso   1.000  C
  C29      1.0000 0.61470  0.14360  0.02500  Biso   1.000  C
  H25      1.0000 0.65980  0.14870  0.08490  Biso   1.000  H
  H26      1.0000 0.57410  0.13880  0.05920  Biso   1.000  H
  H27      1.0000 0.61990  0.11490  0.97990  Biso   1.000  H
  C30      1.0000 0.79250  0.32850  0.28050  Biso   1.000  C
  H28      1.0000 0.83710  0.30950  0.28950  Biso   1.000  H
  H29      1.0000 0.80260  0.35630  0.33240  Biso   1.000  H
  H30      1.0000 0.75480  0.30840  0.29880  Biso   1.000  H
  C31      1.0000 0.48260  0.39500  0.23490  Biso   1.000  C
  C32      1.0000 0.42800  0.47570  0.15990  Biso   1.000  C
  C33      1.0000 0.48110  0.45030  0.23790  Biso   1.000  C
  C34      1.0000 0.53680  0.47510  0.31810  Biso   1.000  C
  C35      1.0000 0.39380  0.43030  0.95300  Biso   1.000  C
  H31      1.0000 0.42460  0.40130  0.96640  Biso   1.000  H
  H32      1.0000 0.35410  0.42590  0.88350  Biso   1.000  H
  H33      1.0000 0.42320  0.45830  0.94380  Biso   1.000  H
  C36      1.0000 0.66740  0.42030  0.35320  Biso   1.000  C
  H34      1.0000 0.69790  0.44750  0.34230  Biso   1.000  H
  H35      1.0000 0.69820  0.39540  0.39970  Biso   1.000  H
  H36      1.0000 0.64230  0.40670  0.27860  Biso   1.000  H
  O9       1.0000 0.57670  0.30840  0.01200  Biso   1.000  O
  O10      1.0000 0.44440  0.37210  0.28480  Biso   1.000  O
  O11      1.0000 0.52250  0.37730  0.17800  Biso   1.000  O
  O12      1.0000 0.63200  0.27860  0.17870  Biso   1.000  O
  Pb3      1.0000 0.51020  0.29352  0.18998  Biso   1.000  Pb
  S9       1.0000 0.59690  0.19527  0.93300  Biso   1.000  S
  S10      1.0000 0.76080  0.34982  0.13250  Biso   1.000  S
  S11      1.0000 0.35830  0.43939  0.06660  Biso   1.000  S
  S12      1.0000 0.60140  0.44096  0.42460  Biso   1.000  S
  C37      1.0000 0.87360  0.78640  0.92340  Biso   1.000  C
  C38      1.0000 0.81590  0.72440  0.03040  Biso   1.000  C
  C39      1.0000 0.80840  0.76880  0.96610  Biso   1.000  C
  C40      1.0000 0.74370  0.79400  0.93960  Biso   1.000  C
  C41      1.0000 0.88530  0.64360  0.97500  Biso   1.000  C
  H37      1.0000 0.84020  0.64870  0.91510  Biso   1.000  H
  H38      1.0000 0.92590  0.63880  0.94080  Biso   1.000  H
  H39      1.0000 0.88010  0.61490  0.02010  Biso   1.000  H
  C42      1.0000 0.70750  0.82850  0.71950  Biso   1.000  C
  H40      1.0000 0.66290  0.80950  0.71050  Biso   1.000  H
  H41      1.0000 0.69740  0.85630  0.66760  Biso   1.000  H
  H42      1.0000 0.74520  0.80840  0.70120  Biso   1.000  H
  C43      1.0000 0.01740  0.89500  0.76510  Biso   1.000  C
  C44      1.0000 0.07200  0.97570  0.84010  Biso   1.000  C
  C45      1.0000 0.01890  0.95030  0.76210  Biso   1.000  C
  C46      1.0000 0.96320  0.97510  0.68190  Biso   1.000  C
  C47      1.0000 0.10620  0.93030  0.04700  Biso   1.000  C
  H43      1.0000 0.07540  0.90130  0.03360  Biso   1.000  H
  H44      1.0000 0.14590  0.92590  0.11650  Biso   1.000  H
  H45      1.0000 0.07680  0.95830  0.05620  Biso   1.000  H
  C48      1.0000 0.83260  0.92030  0.64680  Biso   1.000  C
  H46      1.0000 0.80210  0.94750  0.65770  Biso   1.000  H
  H47      1.0000 0.80180  0.89540  0.60030  Biso   1.000  H
  H48      1.0000 0.85770  0.90670  0.72140  Biso   1.000  H
  O13      1.0000 0.92330  0.80840  0.98800  Biso   1.000  O
  O14      1.0000 0.05560  0.87210  0.71520  Biso   1.000  O
  O15      1.0000 0.97750  0.87730  0.82200  Biso   1.000  O
  O16      1.0000 0.86800  0.77860  0.82130  Biso   1.000  O
  Pb4      1.0000 0.98980  0.79352  0.81002  Biso   1.000  Pb
  S13      1.0000 0.90310  0.69527  0.06700  Biso   1.000  S
  S14      1.0000 0.73920  0.84982  0.86750  Biso   1.000  S
  S15      1.0000 0.14170  0.93939  0.93340  Biso   1.000  S
  S16      1.0000 0.89860  0.94096  0.57540  Biso   1.000  S
  C49      1.0000 0.37360  0.71360  0.92340  Biso   1.000  C
  C50      1.0000 0.31590  0.77560  0.03040  Biso   1.000  C
  C51      1.0000 0.30840  0.73120  0.96610  Biso   1.000  C
  C52      1.0000 0.24370  0.70600  0.93960  Biso   1.000  C
  C53      1.0000 0.38530  0.85640  0.97500  Biso   1.000  C
  H49      1.0000 0.34020  0.85130  0.91510  Biso   1.000  H
  H50      1.0000 0.42590  0.86120  0.94080  Biso   1.000  H
  H51      1.0000 0.38010  0.88510  0.02010  Biso   1.000  H
  C54      1.0000 0.20750  0.67150  0.71950  Biso   1.000  C
  H52      1.0000 0.16290  0.69050  0.71050  Biso   1.000  H
  H53      1.0000 0.19740  0.64370  0.66760  Biso   1.000  H
  H54      1.0000 0.24520  0.69160  0.70120  Biso   1.000  H
  C55      1.0000 0.51740  0.60500  0.76510  Biso   1.000  C
  C56      1.0000 0.57200  0.52430  0.84010  Biso   1.000  C
  C57      1.0000 0.51890  0.54970  0.76210  Biso   1.000  C
  C58      1.0000 0.46320  0.52490  0.68190  Biso   1.000  C
  C59      1.0000 0.60620  0.56970  0.04700  Biso   1.000  C
  H55      1.0000 0.57540  0.59870  0.03360  Biso   1.000  H
  H56      1.0000 0.64590  0.57410  0.11650  Biso   1.000  H
  H57      1.0000 0.57680  0.54170  0.05620  Biso   1.000  H
  C60      1.0000 0.33260  0.57970  0.64680  Biso   1.000  C
  H58      1.0000 0.30210  0.55250  0.65770  Biso   1.000  H
  H59      1.0000 0.30180  0.60460  0.60030  Biso   1.000  H
  H60      1.0000 0.35770  0.59330  0.72140  Biso   1.000  H
  O17      1.0000 0.42330  0.69160  0.98800  Biso   1.000  O
  O18      1.0000 0.55560  0.62790  0.71520  Biso   1.000  O
  O19      1.0000 0.47750  0.62270  0.82200  Biso   1.000  O
  O20      1.0000 0.36800  0.72140  0.82130  Biso   1.000  O
  Pb5      1.0000 0.48980  0.70648  0.81002  Biso   1.000  Pb
  S17      1.0000 0.40310  0.80473  0.06700  Biso   1.000  S
  S18      1.0000 0.23920  0.65018  0.86750  Biso   1.000  S
  S19      1.0000 0.64170  0.56061  0.93340  Biso   1.000  S
  S20      1.0000 0.39860  0.55904  0.57540  Biso   1.000  S
  C61      1.0000 0.12640  0.21360  0.07660  Biso   1.000  C
  C62      1.0000 0.18410  0.27560  0.96960  Biso   1.000  C
  C63      1.0000 0.19160  0.23120  0.03390  Biso   1.000  C
  C64      1.0000 0.25630  0.20600  0.06040  Biso   1.000  C
  C65      1.0000 0.11470  0.35640  0.02500  Biso   1.000  C
  H61      1.0000 0.15980  0.35130  0.08490  Biso   1.000  H
  H62      1.0000 0.07410  0.36120  0.05920  Biso   1.000  H
  H63      1.0000 0.11990  0.38510  0.97990  Biso   1.000  H
  C66      1.0000 0.29250  0.17150  0.28050  Biso   1.000  C
  H64      1.0000 0.33710  0.19050  0.28950  Biso   1.000  H
  H65      1.0000 0.30260  0.14370  0.33240  Biso   1.000  H
  H66      1.0000 0.25480  0.19160  0.29880  Biso   1.000  H
  C67      1.0000 0.98260  0.10500  0.23490  Biso   1.000  C
  C68      1.0000 0.92800  0.02430  0.15990  Biso   1.000  C
  C69      1.0000 0.98110  0.04970  0.23790  Biso   1.000  C
  C70      1.0000 0.03680  0.02490  0.31810  Biso   1.000  C
  C71      1.0000 0.89380  0.06970  0.95300  Biso   1.000  C
  H67      1.0000 0.92460  0.09870  0.96640  Biso   1.000  H
  H68      1.0000 0.85410  0.07410  0.88350  Biso   1.000  H
  H69      1.0000 0.92320  0.04170  0.94380  Biso   1.000  H
  C72      1.0000 0.16740  0.07970  0.35320  Biso   1.000  C
  H70      1.0000 0.19790  0.05250  0.34230  Biso   1.000  H
  H71      1.0000 0.19820  0.10460  0.39970  Biso   1.000  H
  H72      1.0000 0.14230  0.09330  0.27860  Biso   1.000  H
  O21      1.0000 0.07670  0.19160  0.01200  Biso   1.000  O
  O22      1.0000 0.94440  0.12790  0.28480  Biso   1.000  O
  O23      1.0000 0.02250  0.12270  0.17800  Biso   1.000  O
  O24      1.0000 0.13200  0.22140  0.17870  Biso   1.000  O
  Pb6      1.0000 0.01020  0.20648  0.18998  Biso   1.000  Pb
  S21      1.0000 0.09690  0.30473  0.93300  Biso   1.000  S
  S22      1.0000 0.26080  0.15018  0.13250  Biso   1.000  S
  S23      1.0000 0.85830  0.06061  0.06660  Biso   1.000  S
  S24      1.0000 0.10140  0.05904  0.42460  Biso   1.000  S
  C73      1.0000 0.12640  0.78640  0.07660  Biso   1.000  C
  C74      1.0000 0.18410  0.72440  0.96960  Biso   1.000  C
  C75      1.0000 0.19160  0.76880  0.03390  Biso   1.000  C
  C76      1.0000 0.25630  0.79400  0.06040  Biso   1.000  C
  C77      1.0000 0.11470  0.64360  0.02500  Biso   1.000  C
  H73      1.0000 0.15980  0.64870  0.08490  Biso   1.000  H
  H74      1.0000 0.07410  0.63880  0.05920  Biso   1.000  H
  H75      1.0000 0.11990  0.61490  0.97990  Biso   1.000  H
  C78      1.0000 0.29250  0.82850  0.28050  Biso   1.000  C
  H76      1.0000 0.33710  0.80950  0.28950  Biso   1.000  H
  H77      1.0000 0.30260  0.85630  0.33240  Biso   1.000  H
  H78      1.0000 0.25480  0.80840  0.29880  Biso   1.000  H
  C79      1.0000 0.98260  0.89500  0.23490  Biso   1.000  C
  C80      1.0000 0.92800  0.97570  0.15990  Biso   1.000  C
  C81      1.0000 0.98110  0.95030  0.23790  Biso   1.000  C
  C82      1.0000 0.03680  0.97510  0.31810  Biso   1.000  C
  C83      1.0000 0.89380  0.93030  0.95300  Biso   1.000  C
  H79      1.0000 0.92460  0.90130  0.96640  Biso   1.000  H
  H80      1.0000 0.85410  0.92590  0.88350  Biso   1.000  H
  H81      1.0000 0.92320  0.95830  0.94380  Biso   1.000  H
  C84      1.0000 0.16740  0.92030  0.35320  Biso   1.000  C
  H82      1.0000 0.19790  0.94750  0.34230  Biso   1.000  H
  H83      1.0000 0.19820  0.89540  0.39970  Biso   1.000  H
  H84      1.0000 0.14230  0.90670  0.27860  Biso   1.000  H
  O25      1.0000 0.07670  0.80840  0.01200  Biso   1.000  O
  O26      1.0000 0.94440  0.87210  0.28480  Biso   1.000  O
  O27      1.0000 0.02250  0.87730  0.17800  Biso   1.000  O
  O28      1.0000 0.13200  0.77860  0.17870  Biso   1.000  O
  Pb7      1.0000 0.01020  0.79352  0.18998  Biso   1.000  Pb
  S25      1.0000 0.09690  0.69527  0.93300  Biso   1.000  S
  S26      1.0000 0.26080  0.84982  0.13250  Biso   1.000  S
  S27      1.0000 0.85830  0.93939  0.06660  Biso   1.000  S
  S28      1.0000 0.10140  0.94096  0.42460  Biso   1.000  S
  C85      1.0000 0.37360  0.28640  0.92340  Biso   1.000  C
  C86      1.0000 0.31590  0.22440  0.03040  Biso   1.000  C
  C87      1.0000 0.30840  0.26880  0.96610  Biso   1.000  C
  C88      1.0000 0.24370  0.29400  0.93960  Biso   1.000  C
  C89      1.0000 0.38530  0.14360  0.97500  Biso   1.000  C
  H85      1.0000 0.34020  0.14870  0.91510  Biso   1.000  H
  H86      1.0000 0.42590  0.13880  0.94080  Biso   1.000  H
  H87      1.0000 0.38010  0.11490  0.02010  Biso   1.000  H
  C90      1.0000 0.20750  0.32850  0.71950  Biso   1.000  C
  H88      1.0000 0.16290  0.30950  0.71050  Biso   1.000  H
  H89      1.0000 0.19740  0.35630  0.66760  Biso   1.000  H
  H90      1.0000 0.24520  0.30840  0.70120  Biso   1.000  H
  C91      1.0000 0.51740  0.39500  0.76510  Biso   1.000  C
  C92      1.0000 0.57200  0.47570  0.84010  Biso   1.000  C
  C93      1.0000 0.51890  0.45030  0.76210  Biso   1.000  C
  C94      1.0000 0.46320  0.47510  0.68190  Biso   1.000  C
  C95      1.0000 0.60620  0.43030  0.04700  Biso   1.000  C
  H91      1.0000 0.57540  0.40130  0.03360  Biso   1.000  H
  H92      1.0000 0.64590  0.42590  0.11650  Biso   1.000  H
  H93      1.0000 0.57680  0.45830  0.05620  Biso   1.000  H
  C96      1.0000 0.33260  0.42030  0.64680  Biso   1.000  C
  H94      1.0000 0.30210  0.44750  0.65770  Biso   1.000  H
  H95      1.0000 0.30180  0.39540  0.60030  Biso   1.000  H
  H96      1.0000 0.35770  0.40670  0.72140  Biso   1.000  H
  O29      1.0000 0.42330  0.30840  0.98800  Biso   1.000  O
  O30      1.0000 0.55560  0.37210  0.71520  Biso   1.000  O
  O31      1.0000 0.47750  0.37730  0.82200  Biso   1.000  O
  O32      1.0000 0.36800  0.27860  0.82130  Biso   1.000  O
  Pb8      1.0000 0.48980  0.29352  0.81002  Biso   1.000  Pb
  S29      1.0000 0.40310  0.19527  0.06700  Biso   1.000  S
  S30      1.0000 0.23920  0.34982  0.86750  Biso   1.000  S
  S31      1.0000 0.64170  0.43939  0.93340  Biso   1.000  S
  S32      1.0000 0.39860  0.44096  0.57540  Biso   1.000  S
