data_image0
_cell_length_a       15.1767
_cell_length_b       15.1767
_cell_length_c       11.8204
_cell_angle_alpha    90
_cell_angle_beta     90
_cell_angle_gamma    90

_symmetry_space_group_name_H-M    "P 1"
_symmetry_int_tables_number       1

loop_
  _symmetry_equiv_pos_as_xyz
  'x, y, z'

loop_
  _atom_site_label
  _atom_site_occupancy
  _atom_site_fract_x
  _atom_site_fract_y
  _atom_site_fract_z
  _atom_site_thermal_displace_type
  _atom_site_B_iso_or_equiv
  _atom_site_type_symbol
  N1       1.0000 0.61194  0.19380  0.97830  Biso   1.000  N
  C1       1.0000 0.65916  0.17095  0.04520  Biso   1.000  C
  C2       1.0000 0.71930  0.14260  0.13320  Biso   1.000  C
  H1       1.0000 0.70200  0.08100  0.17400  Biso   1.000  H
  H2       1.0000 0.73100  0.18300  0.18500  Biso   1.000  H
  H3       1.0000 0.77400  0.13200  0.10300  Biso   1.000  H
  H4       1.0000 0.68700  0.14900  0.20700  Biso   1.000  H
  H5       1.0000 0.76600  0.18000  0.14000  Biso   1.000  H
  H6       1.0000 0.74900  0.09100  0.10600  Biso   1.000  H
  N2       1.0000 0.38806  0.30620  0.97830  Biso   1.000  N
  C3       1.0000 0.34084  0.32905  0.04520  Biso   1.000  C
  C4       1.0000 0.28070  0.35740  0.13320  Biso   1.000  C
  H7       1.0000 0.29800  0.41900  0.17400  Biso   1.000  H
  H8       1.0000 0.26900  0.31700  0.18500  Biso   1.000  H
  H9       1.0000 0.22600  0.36800  0.10300  Biso   1.000  H
  H10      1.0000 0.31300  0.35100  0.20700  Biso   1.000  H
  H11      1.0000 0.23400  0.32000  0.14000  Biso   1.000  H
  H12      1.0000 0.25100  0.40900  0.10600  Biso   1.000  H
  N3       1.0000 0.44380  0.13806  0.77170  Biso   1.000  N
  C5       1.0000 0.42095  0.09084  0.70480  Biso   1.000  C
  C6       1.0000 0.39260  0.03070  0.61680  Biso   1.000  C
  H13      1.0000 0.33100  0.04800  0.57600  Biso   1.000  H
  H14      1.0000 0.43300  0.01900  0.56500  Biso   1.000  H
  H15      1.0000 0.38200  0.97600  0.64700  Biso   1.000  H
  H16      1.0000 0.39900  0.06300  0.54300  Biso   1.000  H
  H17      1.0000 0.43000  0.98400  0.61000  Biso   1.000  H
  H18      1.0000 0.34100  0.00100  0.64400  Biso   1.000  H
  N4       1.0000 0.55620  0.36194  0.77170  Biso   1.000  N
  C7       1.0000 0.57905  0.40916  0.70480  Biso   1.000  C
  C8       1.0000 0.60740  0.46930  0.61680  Biso   1.000  C
  H19      1.0000 0.66900  0.45200  0.57600  Biso   1.000  H
  H20      1.0000 0.56700  0.48100  0.56500  Biso   1.000  H
  H21      1.0000 0.61800  0.52400  0.64700  Biso   1.000  H
  H22      1.0000 0.60100  0.43700  0.54300  Biso   1.000  H
  H23      1.0000 0.57000  0.51600  0.61000  Biso   1.000  H
  H24      1.0000 0.65900  0.49900  0.64400  Biso   1.000  H
  Ag1      1.0000 0.50000  0.25000  0.87500  Biso   1.000  Ag
  N5       1.0000 0.11194  0.69380  0.47830  Biso   1.000  N
  C9       1.0000 0.15916  0.67095  0.54520  Biso   1.000  C
  C10      1.0000 0.21930  0.64260  0.63320  Biso   1.000  C
  H25      1.0000 0.20200  0.58100  0.67400  Biso   1.000  H
  H26      1.0000 0.23100  0.68300  0.68500  Biso   1.000  H
  H27      1.0000 0.27400  0.63200  0.60300  Biso   1.000  H
  H28      1.0000 0.18700  0.64900  0.70700  Biso   1.000  H
  H29      1.0000 0.26600  0.68000  0.64000  Biso   1.000  H
  H30      1.0000 0.24900  0.59100  0.60600  Biso   1.000  H
  N6       1.0000 0.88806  0.80620  0.47830  Biso   1.000  N
  C11      1.0000 0.84084  0.82905  0.54520  Biso   1.000  C
  C12      1.0000 0.78070  0.85740  0.63320  Biso   1.000  C
  H31      1.0000 0.79800  0.91900  0.67400  Biso   1.000  H
  H32      1.0000 0.76900  0.81700  0.68500  Biso   1.000  H
  H33      1.0000 0.72600  0.86800  0.60300  Biso   1.000  H
  H34      1.0000 0.81300  0.85100  0.70700  Biso   1.000  H
  H35      1.0000 0.73400  0.82000  0.64000  Biso   1.000  H
  H36      1.0000 0.75100  0.90900  0.60600  Biso   1.000  H
  N7       1.0000 0.94380  0.63806  0.27170  Biso   1.000  N
  C13      1.0000 0.92095  0.59084  0.20480  Biso   1.000  C
  C14      1.0000 0.89260  0.53070  0.11680  Biso   1.000  C
  H37      1.0000 0.83100  0.54800  0.07600  Biso   1.000  H
  H38      1.0000 0.93300  0.51900  0.06500  Biso   1.000  H
  H39      1.0000 0.88200  0.47600  0.14700  Biso   1.000  H
  H40      1.0000 0.89900  0.56300  0.04300  Biso   1.000  H
  H41      1.0000 0.93000  0.48400  0.11000  Biso   1.000  H
  H42      1.0000 0.84100  0.50100  0.14400  Biso   1.000  H
  N8       1.0000 0.05620  0.86194  0.27170  Biso   1.000  N
  C15      1.0000 0.07905  0.90916  0.20480  Biso   1.000  C
  C16      1.0000 0.10740  0.96930  0.11680  Biso   1.000  C
  H43      1.0000 0.16900  0.95200  0.07600  Biso   1.000  H
  H44      1.0000 0.06700  0.98100  0.06500  Biso   1.000  H
  H45      1.0000 0.11800  0.02400  0.14700  Biso   1.000  H
  H46      1.0000 0.10100  0.93700  0.04300  Biso   1.000  H
  H47      1.0000 0.07000  0.01600  0.11000  Biso   1.000  H
  H48      1.0000 0.15900  0.99900  0.14400  Biso   1.000  H
  Ag2      1.0000 0.00000  0.75000  0.37500  Biso   1.000  Ag
  N9       1.0000 0.55620  0.86194  0.22830  Biso   1.000  N
  C17      1.0000 0.57905  0.90916  0.29520  Biso   1.000  C
  C18      1.0000 0.60740  0.96930  0.38320  Biso   1.000  C
  H49      1.0000 0.66900  0.95200  0.42400  Biso   1.000  H
  H50      1.0000 0.56700  0.98100  0.43500  Biso   1.000  H
  H51      1.0000 0.61800  0.02400  0.35300  Biso   1.000  H
  H52      1.0000 0.60100  0.93700  0.45700  Biso   1.000  H
  H53      1.0000 0.57000  0.01600  0.39000  Biso   1.000  H
  H54      1.0000 0.65900  0.99900  0.35600  Biso   1.000  H
  N10      1.0000 0.44380  0.63806  0.22830  Biso   1.000  N
  C19      1.0000 0.42095  0.59084  0.29520  Biso   1.000  C
  C20      1.0000 0.39260  0.53070  0.38320  Biso   1.000  C
  H55      1.0000 0.33100  0.54800  0.42400  Biso   1.000  H
  H56      1.0000 0.43300  0.51900  0.43500  Biso   1.000  H
  H57      1.0000 0.38200  0.47600  0.35300  Biso   1.000  H
  H58      1.0000 0.39900  0.56300  0.45700  Biso   1.000  H
  H59      1.0000 0.43000  0.48400  0.39000  Biso   1.000  H
  H60      1.0000 0.34100  0.50100  0.35600  Biso   1.000  H
  N11      1.0000 0.38806  0.80620  0.02170  Biso   1.000  N
  C21      1.0000 0.34084  0.82905  0.95480  Biso   1.000  C
  C22      1.0000 0.28070  0.85740  0.86680  Biso   1.000  C
  H61      1.0000 0.29800  0.91900  0.82600  Biso   1.000  H
  H62      1.0000 0.26900  0.81700  0.81500  Biso   1.000  H
  H63      1.0000 0.22600  0.86800  0.89700  Biso   1.000  H
  H64      1.0000 0.31300  0.85100  0.79300  Biso   1.000  H
  H65      1.0000 0.23400  0.82000  0.86000  Biso   1.000  H
  H66      1.0000 0.25100  0.90900  0.89400  Biso   1.000  H
  N12      1.0000 0.61194  0.69380  0.02170  Biso   1.000  N
  C23      1.0000 0.65916  0.67095  0.95480  Biso   1.000  C
  C24      1.0000 0.71930  0.64260  0.86680  Biso   1.000  C
  H67      1.0000 0.70200  0.58100  0.82600  Biso   1.000  H
  H68      1.0000 0.73100  0.68300  0.81500  Biso   1.000  H
  H69      1.0000 0.77400  0.63200  0.89700  Biso   1.000  H
  H70      1.0000 0.68700  0.64900  0.79300  Biso   1.000  H
  H71      1.0000 0.76600  0.68000  0.86000  Biso   1.000  H
  H72      1.0000 0.74900  0.59100  0.89400  Biso   1.000  H
  Ag3      1.0000 0.50000  0.75000  0.12500  Biso   1.000  Ag
  N13      1.0000 0.05620  0.36194  0.72830  Biso   1.000  N
  C25      1.0000 0.07905  0.40916  0.79520  Biso   1.000  C
  C26      1.0000 0.10740  0.46930  0.88320  Biso   1.000  C
  H73      1.0000 0.16900  0.45200  0.92400  Biso   1.000  H
  H74      1.0000 0.06700  0.48100  0.93500  Biso   1.000  H
  H75      1.0000 0.11800  0.52400  0.85300  Biso   1.000  H
  H76      1.0000 0.10100  0.43700  0.95700  Biso   1.000  H
  H77      1.0000 0.07000  0.51600  0.89000  Biso   1.000  H
  H78      1.0000 0.15900  0.49900  0.85600  Biso   1.000  H
  N14      1.0000 0.94380  0.13806  0.72830  Biso   1.000  N
  C27      1.0000 0.92095  0.09084  0.79520  Biso   1.000  C
  C28      1.0000 0.89260  0.03070  0.88320  Biso   1.000  C
  H79      1.0000 0.83100  0.04800  0.92400  Biso   1.000  H
  H80      1.0000 0.93300  0.01900  0.93500  Biso   1.000  H
  H81      1.0000 0.88200  0.97600  0.85300  Biso   1.000  H
  H82      1.0000 0.89900  0.06300  0.95700  Biso   1.000  H
  H83      1.0000 0.93000  0.98400  0.89000  Biso   1.000  H
  H84      1.0000 0.84100  0.00100  0.85600  Biso   1.000  H
  N15      1.0000 0.88806  0.30620  0.52170  Biso   1.000  N
  C29      1.0000 0.84084  0.32905  0.45480  Biso   1.000  C
  C30      1.0000 0.78070  0.35740  0.36680  Biso   1.000  C
  H85      1.0000 0.79800  0.41900  0.32600  Biso   1.000  H
  H86      1.0000 0.76900  0.31700  0.31500  Biso   1.000  H
  H87      1.0000 0.72600  0.36800  0.39700  Biso   1.000  H
  H88      1.0000 0.81300  0.35100  0.29300  Biso   1.000  H
  H89      1.0000 0.73400  0.32000  0.36000  Biso   1.000  H
  H90      1.0000 0.75100  0.40900  0.39400  Biso   1.000  H
  N16      1.0000 0.11194  0.19380  0.52170  Biso   1.000  N
  C31      1.0000 0.15916  0.17095  0.45480  Biso   1.000  C
  C32      1.0000 0.21930  0.14260  0.36680  Biso   1.000  C
  H91      1.0000 0.20200  0.08100  0.32600  Biso   1.000  H
  H92      1.0000 0.23100  0.18300  0.31500  Biso   1.000  H
  H93      1.0000 0.27400  0.13200  0.39700  Biso   1.000  H
  H94      1.0000 0.18700  0.14900  0.29300  Biso   1.000  H
  H95      1.0000 0.26600  0.18000  0.36000  Biso   1.000  H
  H96      1.0000 0.24900  0.09100  0.39400  Biso   1.000  H
  Ag4      1.0000 0.00000  0.25000  0.62500  Biso   1.000  Ag
