data_MUTZUX_clean
_audit_creation_date              2014-07-02
_audit_creation_method            'Materials Studio'
_symmetry_space_group_name_H-M    'P1'
_symmetry_Int_Tables_number       1
_symmetry_cell_setting            triclinic
loop_
_symmetry_equiv_pos_as_xyz
  x,y,z
_cell_length_a                    10.7510
_cell_length_b                    17.8683
_cell_length_c                    22.6006
_cell_angle_alpha                 70.2928
_cell_angle_beta                  76.2404
_cell_angle_gamma                 72.4919
loop_
_atom_site_label
_atom_site_type_symbol
_atom_site_fract_x
_atom_site_fract_y
_atom_site_fract_z
_atom_site_U_iso_or_equiv
_atom_site_adp_type
_atom_site_occupancy
H1     H     0.52010   0.58950   0.35290   0.01267  Uiso   1.00
H2     H     0.63660   0.56730   0.25790   0.01267  Uiso   1.00
H3     H     0.29960   0.63660   0.18840   0.01267  Uiso   1.00
H4     H     0.18490   0.65850   0.28270   0.01267  Uiso   1.00
H5     H     0.71090   0.80610   0.12730   0.01267  Uiso   1.00
H6     H     0.55870   0.72850   0.16010   0.01267  Uiso   1.00
H7     H     0.80870   0.56330   0.08050   0.01267  Uiso   1.00
H8     H     0.96050   0.64030   0.04470   0.01267  Uiso   1.00
H9     H     0.46250   0.91050   0.14710   0.01267  Uiso   1.00
H10    H     0.46180   0.93270   0.24210   0.01267  Uiso   1.00
H11    H     0.12460   0.86340   0.31160   0.01267  Uiso   1.00
H12    H     0.12610   0.84150   0.21730   0.01267  Uiso   1.00
H13    H     0.64430   0.69390   0.37270   0.01267  Uiso   1.00
H14    H     0.44730   0.77150   0.33990   0.01267  Uiso   1.00
H15    H     0.45250   0.93670   0.41950   0.01267  Uiso   1.00
H16    H     0.64550   0.85970   0.45530   0.01267  Uiso   1.00
H17    H     0.47990   0.41050   0.64710   0.01267  Uiso   1.00
H18    H     0.36340   0.43270   0.74210   0.01267  Uiso   1.00
H19    H     0.70040   0.36340   0.81160   0.01267  Uiso   1.00
H20    H     0.81510   0.34150   0.71730   0.01267  Uiso   1.00
H21    H     0.28910   0.19390   0.87270   0.01267  Uiso   1.00
H22    H     0.44130   0.27150   0.83990   0.01267  Uiso   1.00
H23    H     0.19130   0.43670   0.91950   0.01267  Uiso   1.00
H24    H     0.03950   0.35970   0.95530   0.01267  Uiso   1.00
H25    H     0.53750   0.08950   0.85290   0.01267  Uiso   1.00
H26    H     0.53820   0.06730   0.75790   0.01267  Uiso   1.00
H27    H     0.87540   0.13660   0.68840   0.01267  Uiso   1.00
H28    H     0.87390   0.15850   0.78270   0.01267  Uiso   1.00
H29    H     0.35570   0.30610   0.62730   0.01267  Uiso   1.00
H30    H     0.55270   0.22850   0.66010   0.01267  Uiso   1.00
H31    H     0.54750   0.06330   0.58050   0.01267  Uiso   1.00
H32    H     0.35450   0.14030   0.54470   0.01267  Uiso   1.00
Pb1    Pb    0.06364   0.67138   0.50282   0.01267  Uiso   1.00
Pb2    Pb    0.96893   0.46172   0.58756   0.01267  Uiso   1.00
Pb3    Pb    0.23784   0.82862   0.99718   0.01267  Uiso   1.00
Pb4    Pb    0.01821   0.03828   0.91244   0.01267  Uiso   1.00
Pb5    Pb    0.93636   0.32862   0.49718   0.01267  Uiso   1.00
Pb6    Pb    0.03107   0.53828   0.41244   0.01267  Uiso   1.00
Pb7    Pb    0.76216   0.17138   0.00282   0.01267  Uiso   1.00
Pb8    Pb    0.98179   0.96172   0.08756   0.01267  Uiso   1.00
C1     C     0.26280   0.64030   0.39050   0.01267  Uiso   1.00
C2     C     0.34170   0.62710   0.32810   0.01267  Uiso   1.00
C3     C     0.47470   0.59950   0.31970   0.01267  Uiso   1.00
C4     C     0.54520   0.58570   0.26250   0.01267  Uiso   1.00
C5     C     0.48160   0.59870   0.21350   0.01267  Uiso   1.00
C6     C     0.34490   0.62680   0.22160   0.01267  Uiso   1.00
C7     C     0.27630   0.64030   0.27790   0.01267  Uiso   1.00
C8     C     0.56560   0.58410   0.15150   0.01267  Uiso   1.00
C9     C     0.62810   0.49040   0.16540   0.01267  Uiso   1.00
C10    C     0.48340   0.61030   0.09610   0.01267  Uiso   1.00
C11    C     0.94880   0.78590   0.05650   0.01267  Uiso   1.00
C12    C     0.85150   0.73360   0.08100   0.01267  Uiso   1.00
C13    C     0.73110   0.75720   0.11700   0.01267  Uiso   1.00
C14    C     0.64080   0.70980   0.13800   0.01267  Uiso   1.00
C15    C     0.67060   0.63580   0.12680   0.01267  Uiso   1.00
C16    C     0.78950   0.61240   0.09040   0.01267  Uiso   1.00
C17    C     0.88000   0.65880   0.06820   0.01267  Uiso   1.00
C18    C     0.29360   0.85970   0.10950   0.01267  Uiso   1.00
C19    C     0.29690   0.87290   0.17190   0.01267  Uiso   1.00
C20    C     0.39390   0.90050   0.18030   0.01267  Uiso   1.00
C21    C     0.39340   0.91430   0.23750   0.01267  Uiso   1.00
C22    C     0.29380   0.90130   0.28650   0.01267  Uiso   1.00
C23    C     0.19330   0.87320   0.27840   0.01267  Uiso   1.00
C24    C     0.19450   0.85970   0.22210   0.01267  Uiso   1.00
C25    C     0.30120   0.91590   0.34850   0.01267  Uiso   1.00
C26    C     0.28390   0.00960   0.33460   0.01267  Uiso   1.00
C27    C     0.18980   0.88970   0.40390   0.01267  Uiso   1.00
C28    C     0.79120   0.71410   0.44350   0.01267  Uiso   1.00
C29    C     0.66610   0.76640   0.41900   0.01267  Uiso   1.00
C30    C     0.60530   0.74280   0.38300   0.01267  Uiso   1.00
C31    C     0.48860   0.79020   0.36200   0.01267  Uiso   1.00
C32    C     0.43320   0.86420   0.37320   0.01267  Uiso   1.00
C33    C     0.49230   0.88760   0.40960   0.01267  Uiso   1.00
C34    C     0.60700   0.84120   0.43180   0.01267  Uiso   1.00
C35    C     0.73720   0.35970   0.60950   0.01267  Uiso   1.00
C36    C     0.65830   0.37290   0.67190   0.01267  Uiso   1.00
C37    C     0.52530   0.40050   0.68030   0.01267  Uiso   1.00
C38    C     0.45480   0.41430   0.73750   0.01267  Uiso   1.00
C39    C     0.51840   0.40130   0.78650   0.01267  Uiso   1.00
C40    C     0.65510   0.37320   0.77840   0.01267  Uiso   1.00
C41    C     0.72370   0.35970   0.72210   0.01267  Uiso   1.00
C42    C     0.43440   0.41590   0.84850   0.01267  Uiso   1.00
C43    C     0.37190   0.50960   0.83460   0.01267  Uiso   1.00
C44    C     0.51660   0.38970   0.90390   0.01267  Uiso   1.00
C45    C     0.05120   0.21410   0.94350   0.01267  Uiso   1.00
C46    C     0.14850   0.26640   0.91900   0.01267  Uiso   1.00
C47    C     0.26890   0.24280   0.88300   0.01267  Uiso   1.00
C48    C     0.35920   0.29020   0.86200   0.01267  Uiso   1.00
C49    C     0.32940   0.36420   0.87320   0.01267  Uiso   1.00
C50    C     0.21050   0.38760   0.90960   0.01267  Uiso   1.00
C51    C     0.12000   0.34120   0.93180   0.01267  Uiso   1.00
C52    C     0.70640   0.14030   0.89050   0.01267  Uiso   1.00
C53    C     0.70310   0.12710   0.82810   0.01267  Uiso   1.00
C54    C     0.60610   0.09950   0.81970   0.01267  Uiso   1.00
C55    C     0.60660   0.08570   0.76250   0.01267  Uiso   1.00
C56    C     0.70620   0.09870   0.71350   0.01267  Uiso   1.00
C57    C     0.80670   0.12680   0.72160   0.01267  Uiso   1.00
C58    C     0.80550   0.14030   0.77790   0.01267  Uiso   1.00
C59    C     0.69880   0.08410   0.65150   0.01267  Uiso   1.00
C60    C     0.71610   0.99040   0.66540   0.01267  Uiso   1.00
C61    C     0.81020   0.11030   0.59610   0.01267  Uiso   1.00
C62    C     0.20880   0.28590   0.55650   0.01267  Uiso   1.00
C63    C     0.33390   0.23360   0.58100   0.01267  Uiso   1.00
C64    C     0.39470   0.25720   0.61700   0.01267  Uiso   1.00
C65    C     0.51140   0.20980   0.63800   0.01267  Uiso   1.00
C66    C     0.56680   0.13580   0.62680   0.01267  Uiso   1.00
C67    C     0.50770   0.11240   0.59040   0.01267  Uiso   1.00
C68    C     0.39300   0.15880   0.56820   0.01267  Uiso   1.00
O1     O     0.32050   0.61720   0.43820   0.01267  Uiso   1.00
O2     O     0.14060   0.67320   0.39260   0.01267  Uiso   1.00
O3     O     0.06720   0.75320   0.04480   0.01267  Uiso   1.00
O4     O     0.90500   0.86270   0.04970   0.01267  Uiso   1.00
O5     O     0.09440   0.53960   0.50540   0.01267  Uiso   1.00
O6     O     0.37590   0.88280   0.06180   0.01267  Uiso   1.00
O7     O     0.20640   0.82680   0.10740   0.01267  Uiso   1.00
O8     O     0.86520   0.74680   0.45520   0.01267  Uiso   1.00
O9     O     0.81740   0.63730   0.45030   0.01267  Uiso   1.00
O10    O     0.13940   0.96040   0.99460   0.01267  Uiso   1.00
O11    O     0.67950   0.38280   0.56180   0.01267  Uiso   1.00
O12    O     0.85940   0.32680   0.60740   0.01267  Uiso   1.00
O13    O     0.93280   0.24680   0.95520   0.01267  Uiso   1.00
O14    O     0.09500   0.13730   0.95030   0.01267  Uiso   1.00
O15    O     0.90560   0.46040   0.49460   0.01267  Uiso   1.00
O16    O     0.62410   0.11720   0.93820   0.01267  Uiso   1.00
O17    O     0.79360   0.17320   0.89260   0.01267  Uiso   1.00
O18    O     0.13480   0.25320   0.54480   0.01267  Uiso   1.00
O19    O     0.18260   0.36270   0.54970   0.01267  Uiso   1.00
O20    O     0.86060   0.03960   0.00540   0.01267  Uiso   1.00
F1     F     0.53750   0.44810   0.19810   0.01267  Uiso   1.00
F2     F     0.72520   0.46640   0.19920   0.01267  Uiso   1.00
F3     F     0.67660   0.46680   0.11240   0.01267  Uiso   1.00
F4     F     0.55740   0.60250   0.04210   0.01267  Uiso   1.00
F5     F     0.41870   0.68840   0.08660   0.01267  Uiso   1.00
F6     F     0.39420   0.56600   0.10940   0.01267  Uiso   1.00
F7     F     0.18370   0.05190   0.30190   0.01267  Uiso   1.00
F8     F     0.39080   0.03360   0.30080   0.01267  Uiso   1.00
F9     F     0.25580   0.03320   0.38760   0.01267  Uiso   1.00
F10    F     0.20200   0.89750   0.45790   0.01267  Uiso   1.00
F11    F     0.19370   0.81160   0.41340   0.01267  Uiso   1.00
F12    F     0.06960   0.93400   0.39060   0.01267  Uiso   1.00
F13    F     0.46250   0.55190   0.80190   0.01267  Uiso   1.00
F14    F     0.27480   0.53360   0.80080   0.01267  Uiso   1.00
F15    F     0.32340   0.53320   0.88760   0.01267  Uiso   1.00
F16    F     0.44260   0.39750   0.95790   0.01267  Uiso   1.00
F17    F     0.58130   0.31160   0.91340   0.01267  Uiso   1.00
F18    F     0.60580   0.43400   0.89060   0.01267  Uiso   1.00
F19    F     0.81630   0.94810   0.69810   0.01267  Uiso   1.00
F20    F     0.60920   0.96640   0.69920   0.01267  Uiso   1.00
F21    F     0.74420   0.96680   0.61240   0.01267  Uiso   1.00
F22    F     0.79800   0.10250   0.54210   0.01267  Uiso   1.00
F23    F     0.80630   0.18840   0.58660   0.01267  Uiso   1.00
F24    F     0.93040   0.06600   0.60940   0.01267  Uiso   1.00
