data_image0
_cell_length_a       29.9341
_cell_length_b       28.039
_cell_length_c       7.9233
_cell_angle_alpha    90
_cell_angle_beta     90
_cell_angle_gamma    90

_symmetry_space_group_name_H-M    "P 1"
_symmetry_int_tables_number       1

loop_
  _symmetry_equiv_pos_as_xyz
  'x, y, z'

loop_
  _atom_site_label
  _atom_site_occupancy
  _atom_site_fract_x
  _atom_site_fract_y
  _atom_site_fract_z
  _atom_site_thermal_displace_type
  _atom_site_B_iso_or_equiv
  _atom_site_type_symbol
  C1       1.0000 0.56700  0.24230  0.88450  Biso   1.000  C
  H1       1.0000 0.55740  0.22920  0.98890  Biso   1.000  H
  C2       1.0000 0.59990  0.27620  0.89010  Biso   1.000  C
  H2       1.0000 0.61170  0.28600  0.99570  Biso   1.000  H
  C3       1.0000 0.73640  0.40480  0.89920  Biso   1.000  C
  H3       1.0000 0.72590  0.39190  0.00270  Biso   1.000  H
  C4       1.0000 0.77110  0.43760  0.90040  Biso   1.000  C
  H4       1.0000 0.78280  0.44860  0.00470  Biso   1.000  H
  C5       1.0000 0.90350  0.57190  0.89540  Biso   1.000  C
  H5       1.0000 0.89360  0.56000  0.00130  Biso   1.000  H
  C6       1.0000 0.93530  0.60680  0.89000  Biso   1.000  C
  H6       1.0000 0.94640  0.61860  0.99430  Biso   1.000  H
  C7       1.0000 0.06700  0.74230  0.88450  Biso   1.000  C
  H7       1.0000 0.05740  0.72920  0.98890  Biso   1.000  H
  C8       1.0000 0.09990  0.77620  0.89010  Biso   1.000  C
  H8       1.0000 0.11170  0.78600  0.99570  Biso   1.000  H
  C9       1.0000 0.23640  0.90480  0.89920  Biso   1.000  C
  H9       1.0000 0.22590  0.89190  0.00270  Biso   1.000  H
  C10      1.0000 0.27110  0.93760  0.90040  Biso   1.000  C
  H10      1.0000 0.28280  0.94860  0.00470  Biso   1.000  H
  C11      1.0000 0.40350  0.07190  0.89540  Biso   1.000  C
  H11      1.0000 0.39360  0.06000  0.00130  Biso   1.000  H
  C12      1.0000 0.43530  0.10680  0.89000  Biso   1.000  C
  H12      1.0000 0.44640  0.11860  0.99430  Biso   1.000  H
  C13      1.0000 0.43300  0.24230  0.61550  Biso   1.000  C
  H13      1.0000 0.44260  0.22920  0.51110  Biso   1.000  H
  C14      1.0000 0.40010  0.27620  0.60990  Biso   1.000  C
  H14      1.0000 0.38830  0.28600  0.50430  Biso   1.000  H
  C15      1.0000 0.26360  0.40480  0.60080  Biso   1.000  C
  H15      1.0000 0.27410  0.39190  0.49730  Biso   1.000  H
  C16      1.0000 0.22890  0.43760  0.59960  Biso   1.000  C
  H16      1.0000 0.21720  0.44860  0.49530  Biso   1.000  H
  C17      1.0000 0.09650  0.57190  0.60460  Biso   1.000  C
  H17      1.0000 0.10640  0.56000  0.49870  Biso   1.000  H
  C18      1.0000 0.06470  0.60680  0.61000  Biso   1.000  C
  H18      1.0000 0.05360  0.61860  0.50570  Biso   1.000  H
  C19      1.0000 0.93300  0.74230  0.61550  Biso   1.000  C
  H19      1.0000 0.94260  0.72920  0.51110  Biso   1.000  H
  C20      1.0000 0.90010  0.77620  0.60990  Biso   1.000  C
  H20      1.0000 0.88830  0.78600  0.50430  Biso   1.000  H
  C21      1.0000 0.76360  0.90480  0.60080  Biso   1.000  C
  H21      1.0000 0.77410  0.89190  0.49730  Biso   1.000  H
  C22      1.0000 0.72890  0.93760  0.59960  Biso   1.000  C
  H22      1.0000 0.71720  0.94860  0.49530  Biso   1.000  H
  C23      1.0000 0.59650  0.07190  0.60460  Biso   1.000  C
  H23      1.0000 0.60640  0.06000  0.49870  Biso   1.000  H
  C24      1.0000 0.56470  0.10680  0.61000  Biso   1.000  C
  H24      1.0000 0.55360  0.11860  0.50570  Biso   1.000  H
  C25      1.0000 0.56700  0.24230  0.61550  Biso   1.000  C
  H25      1.0000 0.55740  0.22920  0.51110  Biso   1.000  H
  C26      1.0000 0.59990  0.27620  0.60990  Biso   1.000  C
  H26      1.0000 0.61170  0.28600  0.50430  Biso   1.000  H
  C27      1.0000 0.73640  0.40480  0.60080  Biso   1.000  C
  H27      1.0000 0.72590  0.39190  0.49730  Biso   1.000  H
  C28      1.0000 0.77110  0.43760  0.59960  Biso   1.000  C
  H28      1.0000 0.78280  0.44860  0.49530  Biso   1.000  H
  C29      1.0000 0.90350  0.57190  0.60460  Biso   1.000  C
  H29      1.0000 0.89360  0.56000  0.49870  Biso   1.000  H
  C30      1.0000 0.93530  0.60680  0.61000  Biso   1.000  C
  H30      1.0000 0.94640  0.61860  0.50570  Biso   1.000  H
  C31      1.0000 0.06700  0.74230  0.61550  Biso   1.000  C
  H31      1.0000 0.05740  0.72920  0.51110  Biso   1.000  H
  C32      1.0000 0.09990  0.77620  0.60990  Biso   1.000  C
  H32      1.0000 0.11170  0.78600  0.50430  Biso   1.000  H
  C33      1.0000 0.23640  0.90480  0.60080  Biso   1.000  C
  H33      1.0000 0.22590  0.89190  0.49730  Biso   1.000  H
  C34      1.0000 0.27110  0.93760  0.59960  Biso   1.000  C
  H34      1.0000 0.28280  0.94860  0.49530  Biso   1.000  H
  C35      1.0000 0.40350  0.07190  0.60460  Biso   1.000  C
  H35      1.0000 0.39360  0.06000  0.49870  Biso   1.000  H
  C36      1.0000 0.43530  0.10680  0.61000  Biso   1.000  C
  H36      1.0000 0.44640  0.11860  0.50570  Biso   1.000  H
  C37      1.0000 0.43300  0.24230  0.88450  Biso   1.000  C
  H37      1.0000 0.44260  0.22920  0.98890  Biso   1.000  H
  C38      1.0000 0.40010  0.27620  0.89010  Biso   1.000  C
  H38      1.0000 0.38830  0.28600  0.99570  Biso   1.000  H
  C39      1.0000 0.26360  0.40480  0.89920  Biso   1.000  C
  H39      1.0000 0.27410  0.39190  0.00270  Biso   1.000  H
  C40      1.0000 0.22890  0.43760  0.90040  Biso   1.000  C
  H40      1.0000 0.21720  0.44860  0.00470  Biso   1.000  H
  C41      1.0000 0.09650  0.57190  0.89540  Biso   1.000  C
  H41      1.0000 0.10640  0.56000  0.00130  Biso   1.000  H
  C42      1.0000 0.06470  0.60680  0.89000  Biso   1.000  C
  H42      1.0000 0.05360  0.61860  0.99430  Biso   1.000  H
  C43      1.0000 0.93300  0.74230  0.88450  Biso   1.000  C
  H43      1.0000 0.94260  0.72920  0.98890  Biso   1.000  H
  C44      1.0000 0.90010  0.77620  0.89010  Biso   1.000  C
  H44      1.0000 0.88830  0.78600  0.99570  Biso   1.000  H
  C45      1.0000 0.76360  0.90480  0.89920  Biso   1.000  C
  H45      1.0000 0.77410  0.89190  0.00270  Biso   1.000  H
  C46      1.0000 0.72890  0.93760  0.90040  Biso   1.000  C
  H46      1.0000 0.71720  0.94860  0.00470  Biso   1.000  H
  C47      1.0000 0.59650  0.07190  0.89540  Biso   1.000  C
  H47      1.0000 0.60640  0.06000  0.00130  Biso   1.000  H
  C48      1.0000 0.56470  0.10680  0.89000  Biso   1.000  C
  H48      1.0000 0.55360  0.11860  0.99430  Biso   1.000  H
  Cu1      1.0000 0.50000  0.17641  0.75000  Biso   1.000  Cu
  Cu2      1.0000 0.00000  0.67641  0.75000  Biso   1.000  Cu
  N1       1.0000 0.54803  0.22690  0.75000  Biso   1.000  N
  N2       1.0000 0.95164  0.62508  0.75000  Biso   1.000  N
  C49      1.0000 0.61500  0.29500  0.75000  Biso   1.000  C
  C50      1.0000 0.65050  0.32860  0.75000  Biso   1.000  C
  C51      1.0000 0.68180  0.35700  0.75000  Biso   1.000  C
  C52      1.0000 0.71710  0.39080  0.75000  Biso   1.000  C
  C53      1.0000 0.78870  0.45430  0.75000  Biso   1.000  C
  C54      1.0000 0.82310  0.48830  0.75000  Biso   1.000  C
  C55      1.0000 0.85260  0.51830  0.75000  Biso   1.000  C
  C56      1.0000 0.88570  0.55400  0.75000  Biso   1.000  C
  N3       1.0000 0.04803  0.72690  0.75000  Biso   1.000  N
  N4       1.0000 0.45164  0.12508  0.75000  Biso   1.000  N
  C57      1.0000 0.11500  0.79500  0.75000  Biso   1.000  C
  C58      1.0000 0.15050  0.82860  0.75000  Biso   1.000  C
  C59      1.0000 0.18180  0.85700  0.75000  Biso   1.000  C
  C60      1.0000 0.21710  0.89080  0.75000  Biso   1.000  C
  C61      1.0000 0.28870  0.95430  0.75000  Biso   1.000  C
  C62      1.0000 0.32310  0.98830  0.75000  Biso   1.000  C
  C63      1.0000 0.35260  0.01830  0.75000  Biso   1.000  C
  C64      1.0000 0.38570  0.05400  0.75000  Biso   1.000  C
  N5       1.0000 0.45197  0.22690  0.75000  Biso   1.000  N
  N6       1.0000 0.04836  0.62508  0.75000  Biso   1.000  N
  C65      1.0000 0.38500  0.29500  0.75000  Biso   1.000  C
  C66      1.0000 0.34950  0.32860  0.75000  Biso   1.000  C
  C67      1.0000 0.31820  0.35700  0.75000  Biso   1.000  C
  C68      1.0000 0.28290  0.39080  0.75000  Biso   1.000  C
  C69      1.0000 0.21130  0.45430  0.75000  Biso   1.000  C
  C70      1.0000 0.17690  0.48830  0.75000  Biso   1.000  C
  C71      1.0000 0.14740  0.51830  0.75000  Biso   1.000  C
  C72      1.0000 0.11430  0.55400  0.75000  Biso   1.000  C
  N7       1.0000 0.95197  0.72690  0.75000  Biso   1.000  N
  N8       1.0000 0.54836  0.12508  0.75000  Biso   1.000  N
  C73      1.0000 0.88500  0.79500  0.75000  Biso   1.000  C
  C74      1.0000 0.84950  0.82860  0.75000  Biso   1.000  C
  C75      1.0000 0.81820  0.85700  0.75000  Biso   1.000  C
  C76      1.0000 0.78290  0.89080  0.75000  Biso   1.000  C
  C77      1.0000 0.71130  0.95430  0.75000  Biso   1.000  C
  C78      1.0000 0.67690  0.98830  0.75000  Biso   1.000  C
  C79      1.0000 0.64740  0.01830  0.75000  Biso   1.000  C
  C80      1.0000 0.61430  0.05400  0.75000  Biso   1.000  C
  C81      1.0000 0.43300  0.75770  0.38450  Biso   1.000  C
  H49      1.0000 0.44260  0.77080  0.48890  Biso   1.000  H
  C82      1.0000 0.40010  0.72380  0.39010  Biso   1.000  C
  H50      1.0000 0.38830  0.71400  0.49570  Biso   1.000  H
  C83      1.0000 0.26360  0.59520  0.39920  Biso   1.000  C
  H51      1.0000 0.27410  0.60810  0.50270  Biso   1.000  H
  C84      1.0000 0.22890  0.56240  0.40040  Biso   1.000  C
  H52      1.0000 0.21720  0.55140  0.50470  Biso   1.000  H
  C85      1.0000 0.09650  0.42810  0.39540  Biso   1.000  C
  H53      1.0000 0.10640  0.44000  0.50130  Biso   1.000  H
  C86      1.0000 0.06470  0.39320  0.39000  Biso   1.000  C
  H54      1.0000 0.05360  0.38140  0.49430  Biso   1.000  H
  C87      1.0000 0.93300  0.25770  0.38450  Biso   1.000  C
  H55      1.0000 0.94260  0.27080  0.48890  Biso   1.000  H
  C88      1.0000 0.90010  0.22380  0.39010  Biso   1.000  C
  H56      1.0000 0.88830  0.21400  0.49570  Biso   1.000  H
  C89      1.0000 0.76360  0.09520  0.39920  Biso   1.000  C
  H57      1.0000 0.77410  0.10810  0.50270  Biso   1.000  H
  C90      1.0000 0.72890  0.06240  0.40040  Biso   1.000  C
  H58      1.0000 0.71720  0.05140  0.50470  Biso   1.000  H
  C91      1.0000 0.59650  0.92810  0.39540  Biso   1.000  C
  H59      1.0000 0.60640  0.94000  0.50130  Biso   1.000  H
  C92      1.0000 0.56470  0.89320  0.39000  Biso   1.000  C
  H60      1.0000 0.55360  0.88140  0.49430  Biso   1.000  H
  C93      1.0000 0.56700  0.75770  0.11550  Biso   1.000  C
  H61      1.0000 0.55740  0.77080  0.01110  Biso   1.000  H
  C94      1.0000 0.59990  0.72380  0.10990  Biso   1.000  C
  H62      1.0000 0.61170  0.71400  0.00430  Biso   1.000  H
  C95      1.0000 0.73640  0.59520  0.10080  Biso   1.000  C
  H63      1.0000 0.72590  0.60810  0.99730  Biso   1.000  H
  C96      1.0000 0.77110  0.56240  0.09960  Biso   1.000  C
  H64      1.0000 0.78280  0.55140  0.99530  Biso   1.000  H
  C97      1.0000 0.90350  0.42810  0.10460  Biso   1.000  C
  H65      1.0000 0.89360  0.44000  0.99870  Biso   1.000  H
  C98      1.0000 0.93530  0.39320  0.11000  Biso   1.000  C
  H66      1.0000 0.94640  0.38140  0.00570  Biso   1.000  H
  C99      1.0000 0.06700  0.25770  0.11550  Biso   1.000  C
  H67      1.0000 0.05740  0.27080  0.01110  Biso   1.000  H
  C100     1.0000 0.09990  0.22380  0.10990  Biso   1.000  C
  H68      1.0000 0.11170  0.21400  0.00430  Biso   1.000  H
  C101     1.0000 0.23640  0.09520  0.10080  Biso   1.000  C
  H69      1.0000 0.22590  0.10810  0.99730  Biso   1.000  H
  C102     1.0000 0.27110  0.06240  0.09960  Biso   1.000  C
  H70      1.0000 0.28280  0.05140  0.99530  Biso   1.000  H
  C103     1.0000 0.40350  0.92810  0.10460  Biso   1.000  C
  H71      1.0000 0.39360  0.94000  0.99870  Biso   1.000  H
  C104     1.0000 0.43530  0.89320  0.11000  Biso   1.000  C
  H72      1.0000 0.44640  0.88140  0.00570  Biso   1.000  H
  C105     1.0000 0.43300  0.75770  0.11550  Biso   1.000  C
  H73      1.0000 0.44260  0.77080  0.01110  Biso   1.000  H
  C106     1.0000 0.40010  0.72380  0.10990  Biso   1.000  C
  H74      1.0000 0.38830  0.71400  0.00430  Biso   1.000  H
  C107     1.0000 0.26360  0.59520  0.10080  Biso   1.000  C
  H75      1.0000 0.27410  0.60810  0.99730  Biso   1.000  H
  C108     1.0000 0.22890  0.56240  0.09960  Biso   1.000  C
  H76      1.0000 0.21720  0.55140  0.99530  Biso   1.000  H
  C109     1.0000 0.09650  0.42810  0.10460  Biso   1.000  C
  H77      1.0000 0.10640  0.44000  0.99870  Biso   1.000  H
  C110     1.0000 0.06470  0.39320  0.11000  Biso   1.000  C
  H78      1.0000 0.05360  0.38140  0.00570  Biso   1.000  H
  C111     1.0000 0.93300  0.25770  0.11550  Biso   1.000  C
  H79      1.0000 0.94260  0.27080  0.01110  Biso   1.000  H
  C112     1.0000 0.90010  0.22380  0.10990  Biso   1.000  C
  H80      1.0000 0.88830  0.21400  0.00430  Biso   1.000  H
  C113     1.0000 0.76360  0.09520  0.10080  Biso   1.000  C
  H81      1.0000 0.77410  0.10810  0.99730  Biso   1.000  H
  C114     1.0000 0.72890  0.06240  0.09960  Biso   1.000  C
  H82      1.0000 0.71720  0.05140  0.99530  Biso   1.000  H
  C115     1.0000 0.59650  0.92810  0.10460  Biso   1.000  C
  H83      1.0000 0.60640  0.94000  0.99870  Biso   1.000  H
  C116     1.0000 0.56470  0.89320  0.11000  Biso   1.000  C
  H84      1.0000 0.55360  0.88140  0.00570  Biso   1.000  H
  C117     1.0000 0.56700  0.75770  0.38450  Biso   1.000  C
  H85      1.0000 0.55740  0.77080  0.48890  Biso   1.000  H
  C118     1.0000 0.59990  0.72380  0.39010  Biso   1.000  C
  H86      1.0000 0.61170  0.71400  0.49570  Biso   1.000  H
  C119     1.0000 0.73640  0.59520  0.39920  Biso   1.000  C
  H87      1.0000 0.72590  0.60810  0.50270  Biso   1.000  H
  C120     1.0000 0.77110  0.56240  0.40040  Biso   1.000  C
  H88      1.0000 0.78280  0.55140  0.50470  Biso   1.000  H
  C121     1.0000 0.90350  0.42810  0.39540  Biso   1.000  C
  H89      1.0000 0.89360  0.44000  0.50130  Biso   1.000  H
  C122     1.0000 0.93530  0.39320  0.39000  Biso   1.000  C
  H90      1.0000 0.94640  0.38140  0.49430  Biso   1.000  H
  C123     1.0000 0.06700  0.25770  0.38450  Biso   1.000  C
  H91      1.0000 0.05740  0.27080  0.48890  Biso   1.000  H
  C124     1.0000 0.09990  0.22380  0.39010  Biso   1.000  C
  H92      1.0000 0.11170  0.21400  0.49570  Biso   1.000  H
  C125     1.0000 0.23640  0.09520  0.39920  Biso   1.000  C
  H93      1.0000 0.22590  0.10810  0.50270  Biso   1.000  H
  C126     1.0000 0.27110  0.06240  0.40040  Biso   1.000  C
  H94      1.0000 0.28280  0.05140  0.50470  Biso   1.000  H
  C127     1.0000 0.40350  0.92810  0.39540  Biso   1.000  C
  H95      1.0000 0.39360  0.94000  0.50130  Biso   1.000  H
  C128     1.0000 0.43530  0.89320  0.39000  Biso   1.000  C
  H96      1.0000 0.44640  0.88140  0.49430  Biso   1.000  H
  Cu3      1.0000 0.50000  0.82359  0.25000  Biso   1.000  Cu
  Cu4      1.0000 0.00000  0.32359  0.25000  Biso   1.000  Cu
  N9       1.0000 0.45197  0.77310  0.25000  Biso   1.000  N
  N10      1.0000 0.04836  0.37492  0.25000  Biso   1.000  N
  C129     1.0000 0.38500  0.70500  0.25000  Biso   1.000  C
  C130     1.0000 0.34950  0.67140  0.25000  Biso   1.000  C
  C131     1.0000 0.31820  0.64300  0.25000  Biso   1.000  C
  C132     1.0000 0.28290  0.60920  0.25000  Biso   1.000  C
  C133     1.0000 0.21130  0.54570  0.25000  Biso   1.000  C
  C134     1.0000 0.17690  0.51170  0.25000  Biso   1.000  C
  C135     1.0000 0.14740  0.48170  0.25000  Biso   1.000  C
  C136     1.0000 0.11430  0.44600  0.25000  Biso   1.000  C
  N11      1.0000 0.95197  0.27310  0.25000  Biso   1.000  N
  N12      1.0000 0.54836  0.87492  0.25000  Biso   1.000  N
  C137     1.0000 0.88500  0.20500  0.25000  Biso   1.000  C
  C138     1.0000 0.84950  0.17140  0.25000  Biso   1.000  C
  C139     1.0000 0.81820  0.14300  0.25000  Biso   1.000  C
  C140     1.0000 0.78290  0.10920  0.25000  Biso   1.000  C
  C141     1.0000 0.71130  0.04570  0.25000  Biso   1.000  C
  C142     1.0000 0.67690  0.01170  0.25000  Biso   1.000  C
  C143     1.0000 0.64740  0.98170  0.25000  Biso   1.000  C
  C144     1.0000 0.61430  0.94600  0.25000  Biso   1.000  C
  N13      1.0000 0.54803  0.77310  0.25000  Biso   1.000  N
  N14      1.0000 0.95164  0.37492  0.25000  Biso   1.000  N
  C145     1.0000 0.61500  0.70500  0.25000  Biso   1.000  C
  C146     1.0000 0.65050  0.67140  0.25000  Biso   1.000  C
  C147     1.0000 0.68180  0.64300  0.25000  Biso   1.000  C
  C148     1.0000 0.71710  0.60920  0.25000  Biso   1.000  C
  C149     1.0000 0.78870  0.54570  0.25000  Biso   1.000  C
  C150     1.0000 0.82310  0.51170  0.25000  Biso   1.000  C
  C151     1.0000 0.85260  0.48170  0.25000  Biso   1.000  C
  C152     1.0000 0.88570  0.44600  0.25000  Biso   1.000  C
  N15      1.0000 0.04803  0.27310  0.25000  Biso   1.000  N
  N16      1.0000 0.45164  0.87492  0.25000  Biso   1.000  N
  C153     1.0000 0.11500  0.20500  0.25000  Biso   1.000  C
  C154     1.0000 0.15050  0.17140  0.25000  Biso   1.000  C
  C155     1.0000 0.18180  0.14300  0.25000  Biso   1.000  C
  C156     1.0000 0.21710  0.10920  0.25000  Biso   1.000  C
  C157     1.0000 0.28870  0.04570  0.25000  Biso   1.000  C
  C158     1.0000 0.32310  0.01170  0.25000  Biso   1.000  C
  C159     1.0000 0.35260  0.98170  0.25000  Biso   1.000  C
  C160     1.0000 0.38570  0.94600  0.25000  Biso   1.000  C
