data_image0
_cell_length_a       31.11
_cell_length_b       11.544
_cell_length_c       22.583
_cell_angle_alpha    90
_cell_angle_beta     112.419
_cell_angle_gamma    90

_symmetry_space_group_name_H-M    "P 1"
_symmetry_int_tables_number       1

loop_
  _symmetry_equiv_pos_as_xyz
  'x, y, z'

loop_
  _atom_site_label
  _atom_site_occupancy
  _atom_site_fract_x
  _atom_site_fract_y
  _atom_site_fract_z
  _atom_site_thermal_displace_type
  _atom_site_B_iso_or_equiv
  _atom_site_type_symbol
  Bi1      1.0000 0.62947  0.58191  0.90211  Biso   1.000  Bi
  Bi2      1.0000 0.54713  0.07801  0.89702  Biso   1.000  Bi
  O1       1.0000 0.55890  0.46140  0.88140  Biso   1.000  O
  O2       1.0000 0.64620  0.37500  0.91480  Biso   1.000  O
  O3       1.0000 0.53080  0.28280  0.87940  Biso   1.000  O
  O4       1.0000 0.61800  0.19800  0.91520  Biso   1.000  O
  O5       1.0000 0.55760  0.70190  0.85620  Biso   1.000  O
  O6       1.0000 0.64450  0.78480  0.91520  Biso   1.000  O
  O7       1.0000 0.52860  0.88150  0.85220  Biso   1.000  O
  O8       1.0000 0.61640  0.95850  0.92170  Biso   1.000  O
  O9       1.0000 0.61310  0.60910  0.99530  Biso   1.000  O
  O10      1.0000 0.69950  0.58230  0.99500  Biso   1.000  O
  O11      1.0000 0.64230  0.58900  0.10100  Biso   1.000  O
  O12      1.0000 0.72900  0.57910  0.10170  Biso   1.000  O
  O13      1.0000 0.55890  0.08470  0.79940  Biso   1.000  O
  O14      1.0000 0.52540  0.08690  0.69270  Biso   1.000  O
  C1       1.0000 0.56320  0.35410  0.88710  Biso   1.000  C
  C2       1.0000 0.61340  0.30460  0.90760  Biso   1.000  C
  C3       1.0000 0.56090  0.81020  0.86740  Biso   1.000  C
  C4       1.0000 0.61200  0.85300  0.90480  Biso   1.000  C
  C5       1.0000 0.64650  0.59650  0.04870  Biso   1.000  C
  C6       1.0000 0.69570  0.58690  0.04860  Biso   1.000  C
  C7       1.0000 0.52430  0.08610  0.74800  Biso   1.000  C
  Bi3      1.0000 0.37053  0.58191  0.59789  Biso   1.000  Bi
  Bi4      1.0000 0.45287  0.07801  0.60298  Biso   1.000  Bi
  O15      1.0000 0.44110  0.46140  0.61860  Biso   1.000  O
  O16      1.0000 0.35380  0.37500  0.58520  Biso   1.000  O
  O17      1.0000 0.46920  0.28280  0.62060  Biso   1.000  O
  O18      1.0000 0.38200  0.19800  0.58480  Biso   1.000  O
  O19      1.0000 0.44240  0.70190  0.64380  Biso   1.000  O
  O20      1.0000 0.35550  0.78480  0.58480  Biso   1.000  O
  O21      1.0000 0.47140  0.88150  0.64780  Biso   1.000  O
  O22      1.0000 0.38360  0.95850  0.57830  Biso   1.000  O
  O23      1.0000 0.38690  0.60910  0.50470  Biso   1.000  O
  O24      1.0000 0.30050  0.58230  0.50500  Biso   1.000  O
  O25      1.0000 0.35770  0.58900  0.39900  Biso   1.000  O
  O26      1.0000 0.27100  0.57910  0.39830  Biso   1.000  O
  O27      1.0000 0.44110  0.08470  0.70060  Biso   1.000  O
  O28      1.0000 0.47460  0.08690  0.80730  Biso   1.000  O
  C8       1.0000 0.43680  0.35410  0.61290  Biso   1.000  C
  C9       1.0000 0.38660  0.30460  0.59240  Biso   1.000  C
  C10      1.0000 0.43910  0.81020  0.63260  Biso   1.000  C
  C11      1.0000 0.38800  0.85300  0.59520  Biso   1.000  C
  C12      1.0000 0.35350  0.59650  0.45130  Biso   1.000  C
  C13      1.0000 0.30430  0.58690  0.45140  Biso   1.000  C
  C14      1.0000 0.47570  0.08610  0.75200  Biso   1.000  C
  Bi5      1.0000 0.12947  0.08191  0.90211  Biso   1.000  Bi
  Bi6      1.0000 0.04713  0.57801  0.89702  Biso   1.000  Bi
  O29      1.0000 0.05890  0.96140  0.88140  Biso   1.000  O
  O30      1.0000 0.14620  0.87500  0.91480  Biso   1.000  O
  O31      1.0000 0.03080  0.78280  0.87940  Biso   1.000  O
  O32      1.0000 0.11800  0.69800  0.91520  Biso   1.000  O
  O33      1.0000 0.05760  0.20190  0.85620  Biso   1.000  O
  O34      1.0000 0.14450  0.28480  0.91520  Biso   1.000  O
  O35      1.0000 0.02860  0.38150  0.85220  Biso   1.000  O
  O36      1.0000 0.11640  0.45850  0.92170  Biso   1.000  O
  O37      1.0000 0.11310  0.10910  0.99530  Biso   1.000  O
  O38      1.0000 0.19950  0.08230  0.99500  Biso   1.000  O
  O39      1.0000 0.14230  0.08900  0.10100  Biso   1.000  O
  O40      1.0000 0.22900  0.07910  0.10170  Biso   1.000  O
  O41      1.0000 0.05890  0.58470  0.79940  Biso   1.000  O
  O42      1.0000 0.02540  0.58690  0.69270  Biso   1.000  O
  C15      1.0000 0.06320  0.85410  0.88710  Biso   1.000  C
  C16      1.0000 0.11340  0.80460  0.90760  Biso   1.000  C
  C17      1.0000 0.06090  0.31020  0.86740  Biso   1.000  C
  C18      1.0000 0.11200  0.35300  0.90480  Biso   1.000  C
  C19      1.0000 0.14650  0.09650  0.04870  Biso   1.000  C
  C20      1.0000 0.19570  0.08690  0.04860  Biso   1.000  C
  C21      1.0000 0.02430  0.58610  0.74800  Biso   1.000  C
  Bi7      1.0000 0.87053  0.08191  0.59789  Biso   1.000  Bi
  Bi8      1.0000 0.95287  0.57801  0.60298  Biso   1.000  Bi
  O43      1.0000 0.94110  0.96140  0.61860  Biso   1.000  O
  O44      1.0000 0.85380  0.87500  0.58520  Biso   1.000  O
  O45      1.0000 0.96920  0.78280  0.62060  Biso   1.000  O
  O46      1.0000 0.88200  0.69800  0.58480  Biso   1.000  O
  O47      1.0000 0.94240  0.20190  0.64380  Biso   1.000  O
  O48      1.0000 0.85550  0.28480  0.58480  Biso   1.000  O
  O49      1.0000 0.97140  0.38150  0.64780  Biso   1.000  O
  O50      1.0000 0.88360  0.45850  0.57830  Biso   1.000  O
  O51      1.0000 0.88690  0.10910  0.50470  Biso   1.000  O
  O52      1.0000 0.80050  0.08230  0.50500  Biso   1.000  O
  O53      1.0000 0.85770  0.08900  0.39900  Biso   1.000  O
  O54      1.0000 0.77100  0.07910  0.39830  Biso   1.000  O
  O55      1.0000 0.94110  0.58470  0.70060  Biso   1.000  O
  O56      1.0000 0.97460  0.58690  0.80730  Biso   1.000  O
  C22      1.0000 0.93680  0.85410  0.61290  Biso   1.000  C
  C23      1.0000 0.88660  0.80460  0.59240  Biso   1.000  C
  C24      1.0000 0.93910  0.31020  0.63260  Biso   1.000  C
  C25      1.0000 0.88800  0.35300  0.59520  Biso   1.000  C
  C26      1.0000 0.85350  0.09650  0.45130  Biso   1.000  C
  C27      1.0000 0.80430  0.08690  0.45140  Biso   1.000  C
  C28      1.0000 0.97570  0.58610  0.75200  Biso   1.000  C
  Bi9      1.0000 0.37053  0.41809  0.09789  Biso   1.000  Bi
  Bi10     1.0000 0.45287  0.92199  0.10298  Biso   1.000  Bi
  O57      1.0000 0.44110  0.53860  0.11860  Biso   1.000  O
  O58      1.0000 0.35380  0.62500  0.08520  Biso   1.000  O
  O59      1.0000 0.46920  0.71720  0.12060  Biso   1.000  O
  O60      1.0000 0.38200  0.80200  0.08480  Biso   1.000  O
  O61      1.0000 0.44240  0.29810  0.14380  Biso   1.000  O
  O62      1.0000 0.35550  0.21520  0.08480  Biso   1.000  O
  O63      1.0000 0.47140  0.11850  0.14780  Biso   1.000  O
  O64      1.0000 0.38360  0.04150  0.07830  Biso   1.000  O
  O65      1.0000 0.38690  0.39090  0.00470  Biso   1.000  O
  O66      1.0000 0.30050  0.41770  0.00500  Biso   1.000  O
  O67      1.0000 0.35770  0.41100  0.89900  Biso   1.000  O
  O68      1.0000 0.27100  0.42090  0.89830  Biso   1.000  O
  O69      1.0000 0.44110  0.91530  0.20060  Biso   1.000  O
  O70      1.0000 0.47460  0.91310  0.30730  Biso   1.000  O
  C29      1.0000 0.43680  0.64590  0.11290  Biso   1.000  C
  C30      1.0000 0.38660  0.69540  0.09240  Biso   1.000  C
  C31      1.0000 0.43910  0.18980  0.13260  Biso   1.000  C
  C32      1.0000 0.38800  0.14700  0.09520  Biso   1.000  C
  C33      1.0000 0.35350  0.40350  0.95130  Biso   1.000  C
  C34      1.0000 0.30430  0.41310  0.95140  Biso   1.000  C
  C35      1.0000 0.47570  0.91390  0.25200  Biso   1.000  C
  Bi11     1.0000 0.62947  0.41809  0.40211  Biso   1.000  Bi
  Bi12     1.0000 0.54713  0.92199  0.39702  Biso   1.000  Bi
  O71      1.0000 0.55890  0.53860  0.38140  Biso   1.000  O
  O72      1.0000 0.64620  0.62500  0.41480  Biso   1.000  O
  O73      1.0000 0.53080  0.71720  0.37940  Biso   1.000  O
  O74      1.0000 0.61800  0.80200  0.41520  Biso   1.000  O
  O75      1.0000 0.55760  0.29810  0.35620  Biso   1.000  O
  O76      1.0000 0.64450  0.21520  0.41520  Biso   1.000  O
  O77      1.0000 0.52860  0.11850  0.35220  Biso   1.000  O
  O78      1.0000 0.61640  0.04150  0.42170  Biso   1.000  O
  O79      1.0000 0.61310  0.39090  0.49530  Biso   1.000  O
  O80      1.0000 0.69950  0.41770  0.49500  Biso   1.000  O
  O81      1.0000 0.64230  0.41100  0.60100  Biso   1.000  O
  O82      1.0000 0.72900  0.42090  0.60170  Biso   1.000  O
  O83      1.0000 0.55890  0.91530  0.29940  Biso   1.000  O
  O84      1.0000 0.52540  0.91310  0.19270  Biso   1.000  O
  C36      1.0000 0.56320  0.64590  0.38710  Biso   1.000  C
  C37      1.0000 0.61340  0.69540  0.40760  Biso   1.000  C
  C38      1.0000 0.56090  0.18980  0.36740  Biso   1.000  C
  C39      1.0000 0.61200  0.14700  0.40480  Biso   1.000  C
  C40      1.0000 0.64650  0.40350  0.54870  Biso   1.000  C
  C41      1.0000 0.69570  0.41310  0.54860  Biso   1.000  C
  C42      1.0000 0.52430  0.91390  0.24800  Biso   1.000  C
  Bi13     1.0000 0.87053  0.91809  0.09789  Biso   1.000  Bi
  Bi14     1.0000 0.95287  0.42199  0.10298  Biso   1.000  Bi
  O85      1.0000 0.94110  0.03860  0.11860  Biso   1.000  O
  O86      1.0000 0.85380  0.12500  0.08520  Biso   1.000  O
  O87      1.0000 0.96920  0.21720  0.12060  Biso   1.000  O
  O88      1.0000 0.88200  0.30200  0.08480  Biso   1.000  O
  O89      1.0000 0.94240  0.79810  0.14380  Biso   1.000  O
  O90      1.0000 0.85550  0.71520  0.08480  Biso   1.000  O
  O91      1.0000 0.97140  0.61850  0.14780  Biso   1.000  O
  O92      1.0000 0.88360  0.54150  0.07830  Biso   1.000  O
  O93      1.0000 0.88690  0.89090  0.00470  Biso   1.000  O
  O94      1.0000 0.80050  0.91770  0.00500  Biso   1.000  O
  O95      1.0000 0.85770  0.91100  0.89900  Biso   1.000  O
  O96      1.0000 0.77100  0.92090  0.89830  Biso   1.000  O
  O97      1.0000 0.94110  0.41530  0.20060  Biso   1.000  O
  O98      1.0000 0.97460  0.41310  0.30730  Biso   1.000  O
  C43      1.0000 0.93680  0.14590  0.11290  Biso   1.000  C
  C44      1.0000 0.88660  0.19540  0.09240  Biso   1.000  C
  C45      1.0000 0.93910  0.68980  0.13260  Biso   1.000  C
  C46      1.0000 0.88800  0.64700  0.09520  Biso   1.000  C
  C47      1.0000 0.85350  0.90350  0.95130  Biso   1.000  C
  C48      1.0000 0.80430  0.91310  0.95140  Biso   1.000  C
  C49      1.0000 0.97570  0.41390  0.25200  Biso   1.000  C
  Bi15     1.0000 0.12947  0.91809  0.40211  Biso   1.000  Bi
  Bi16     1.0000 0.04713  0.42199  0.39702  Biso   1.000  Bi
  O99      1.0000 0.05890  0.03860  0.38140  Biso   1.000  O
  O100     1.0000 0.14620  0.12500  0.41480  Biso   1.000  O
  O101     1.0000 0.03080  0.21720  0.37940  Biso   1.000  O
  O102     1.0000 0.11800  0.30200  0.41520  Biso   1.000  O
  O103     1.0000 0.05760  0.79810  0.35620  Biso   1.000  O
  O104     1.0000 0.14450  0.71520  0.41520  Biso   1.000  O
  O105     1.0000 0.02860  0.61850  0.35220  Biso   1.000  O
  O106     1.0000 0.11640  0.54150  0.42170  Biso   1.000  O
  O107     1.0000 0.11310  0.89090  0.49530  Biso   1.000  O
  O108     1.0000 0.19950  0.91770  0.49500  Biso   1.000  O
  O109     1.0000 0.14230  0.91100  0.60100  Biso   1.000  O
  O110     1.0000 0.22900  0.92090  0.60170  Biso   1.000  O
  O111     1.0000 0.05890  0.41530  0.29940  Biso   1.000  O
  O112     1.0000 0.02540  0.41310  0.19270  Biso   1.000  O
  C50      1.0000 0.06320  0.14590  0.38710  Biso   1.000  C
  C51      1.0000 0.11340  0.19540  0.40760  Biso   1.000  C
  C52      1.0000 0.06090  0.68980  0.36740  Biso   1.000  C
  C53      1.0000 0.11200  0.64700  0.40480  Biso   1.000  C
  C54      1.0000 0.14650  0.90350  0.54870  Biso   1.000  C
  C55      1.0000 0.19570  0.91310  0.54860  Biso   1.000  C
  C56      1.0000 0.02430  0.41390  0.24800  Biso   1.000  C
