data_image0
_cell_length_a       22.024
_cell_length_b       15.065
_cell_length_c       24.12
_cell_angle_alpha    90
_cell_angle_beta     90
_cell_angle_gamma    90

_symmetry_space_group_name_H-M    "P 1"
_symmetry_int_tables_number       1

loop_
  _symmetry_equiv_pos_as_xyz
  'x, y, z'

loop_
  _atom_site_label
  _atom_site_occupancy
  _atom_site_fract_x
  _atom_site_fract_y
  _atom_site_fract_z
  _atom_site_thermal_displace_type
  _atom_site_B_iso_or_equiv
  _atom_site_type_symbol
  N1       1.0000 0.40670  0.00350  0.48630  Biso   1.000  N
  N2       1.0000 0.32070  0.98070  0.43950  Biso   1.000  N
  N3       1.0000 0.99670  0.63560  0.47890  Biso   1.000  N
  N4       1.0000 0.01750  0.77720  0.47630  Biso   1.000  N
  C1       1.0000 0.17380  0.98310  0.42490  Biso   1.000  C
  H1       1.0000 0.18130  0.03950  0.41080  Biso   1.000  H
  C2       1.0000 0.10410  0.88180  0.46890  Biso   1.000  C
  C3       1.0000 0.98830  0.75540  0.42800  Biso   1.000  C
  H2       1.0000 0.97820  0.79410  0.39940  Biso   1.000  H
  C4       1.0000 0.02050  0.70240  0.50700  Biso   1.000  C
  H3       1.0000 0.03680  0.69850  0.54250  Biso   1.000  H
  C5       1.0000 0.11630  0.96400  0.44850  Biso   1.000  C
  H4       1.0000 0.08660  0.00760  0.44990  Biso   1.000  H
  C6       1.0000 0.37890  0.95410  0.44770  Biso   1.000  C
  H5       1.0000 0.39720  0.90750  0.42880  Biso   1.000  H
  C7       1.0000 0.04330  0.86120  0.49480  Biso   1.000  C
  H6       1.0000 0.04790  0.85960  0.53480  Biso   1.000  H
  H7       1.0000 0.01520  0.90870  0.48600  Biso   1.000  H
  C8       1.0000 0.21740  0.92100  0.42270  Biso   1.000  C
  C9       1.0000 0.97720  0.66960  0.42960  Biso   1.000  C
  H8       1.0000 0.95880  0.63720  0.40150  Biso   1.000  H
  C10      1.0000 0.14910  0.81700  0.46650  Biso   1.000  C
  H9       1.0000 0.14150  0.76030  0.48050  Biso   1.000  H
  C11      1.0000 0.20500  0.83630  0.44330  Biso   1.000  C
  H10      1.0000 0.23460  0.79250  0.44140  Biso   1.000  H
  C12      1.0000 0.27940  0.94300  0.39820  Biso   1.000  C
  H11      1.0000 0.29720  0.88880  0.38330  Biso   1.000  H
  H12      1.0000 0.27450  0.98430  0.36790  Biso   1.000  H
  C13      1.0000 0.31190  0.05300  0.47550  Biso   1.000  C
  H13      1.0000 0.27690  0.08710  0.47940  Biso   1.000  H
  C14      1.0000 0.36410  0.06300  0.50270  Biso   1.000  C
  H14      1.0000 0.37060  0.10610  0.52980  Biso   1.000  H
  N5       1.0000 0.90670  0.49650  0.51370  Biso   1.000  N
  N6       1.0000 0.82070  0.51930  0.56050  Biso   1.000  N
  N7       1.0000 0.49670  0.86440  0.52110  Biso   1.000  N
  N8       1.0000 0.51750  0.72280  0.52370  Biso   1.000  N
  C15      1.0000 0.67380  0.51690  0.57510  Biso   1.000  C
  H15      1.0000 0.68130  0.46050  0.58920  Biso   1.000  H
  C16      1.0000 0.60410  0.61820  0.53110  Biso   1.000  C
  C17      1.0000 0.48830  0.74460  0.57200  Biso   1.000  C
  H16      1.0000 0.47820  0.70590  0.60060  Biso   1.000  H
  C18      1.0000 0.52050  0.79760  0.49300  Biso   1.000  C
  H17      1.0000 0.53680  0.80150  0.45750  Biso   1.000  H
  C19      1.0000 0.61630  0.53600  0.55150  Biso   1.000  C
  H18      1.0000 0.58660  0.49240  0.55010  Biso   1.000  H
  C20      1.0000 0.87890  0.54590  0.55230  Biso   1.000  C
  H19      1.0000 0.89720  0.59250  0.57120  Biso   1.000  H
  C21      1.0000 0.54330  0.63880  0.50520  Biso   1.000  C
  H20      1.0000 0.54790  0.64040  0.46520  Biso   1.000  H
  H21      1.0000 0.51520  0.59130  0.51400  Biso   1.000  H
  C22      1.0000 0.71740  0.57900  0.57730  Biso   1.000  C
  C23      1.0000 0.47720  0.83040  0.57040  Biso   1.000  C
  H22      1.0000 0.45880  0.86280  0.59850  Biso   1.000  H
  C24      1.0000 0.64910  0.68300  0.53350  Biso   1.000  C
  H23      1.0000 0.64150  0.73970  0.51950  Biso   1.000  H
  C25      1.0000 0.70500  0.66370  0.55670  Biso   1.000  C
  H24      1.0000 0.73460  0.70750  0.55860  Biso   1.000  H
  C26      1.0000 0.77940  0.55700  0.60180  Biso   1.000  C
  H25      1.0000 0.79720  0.61120  0.61670  Biso   1.000  H
  H26      1.0000 0.77450  0.51570  0.63210  Biso   1.000  H
  C27      1.0000 0.81190  0.44700  0.52450  Biso   1.000  C
  H27      1.0000 0.77690  0.41290  0.52060  Biso   1.000  H
  C28      1.0000 0.86410  0.43700  0.49730  Biso   1.000  C
  H28      1.0000 0.87060  0.39390  0.47020  Biso   1.000  H
  N9       1.0000 0.59330  0.99650  0.51370  Biso   1.000  N
  N10      1.0000 0.67930  0.01930  0.56050  Biso   1.000  N
  N11      1.0000 0.00330  0.36440  0.52110  Biso   1.000  N
  N12      1.0000 0.98250  0.22280  0.52370  Biso   1.000  N
  C29      1.0000 0.82620  0.01690  0.57510  Biso   1.000  C
  H29      1.0000 0.81870  0.96050  0.58920  Biso   1.000  H
  C30      1.0000 0.89590  0.11820  0.53110  Biso   1.000  C
  C31      1.0000 0.01170  0.24460  0.57200  Biso   1.000  C
  H30      1.0000 0.02180  0.20590  0.60060  Biso   1.000  H
  C32      1.0000 0.97950  0.29760  0.49300  Biso   1.000  C
  H31      1.0000 0.96320  0.30150  0.45750  Biso   1.000  H
  C33      1.0000 0.88370  0.03600  0.55150  Biso   1.000  C
  H32      1.0000 0.91340  0.99240  0.55010  Biso   1.000  H
  C34      1.0000 0.62110  0.04590  0.55230  Biso   1.000  C
  H33      1.0000 0.60280  0.09250  0.57120  Biso   1.000  H
  C35      1.0000 0.95670  0.13880  0.50520  Biso   1.000  C
  H34      1.0000 0.95210  0.14040  0.46520  Biso   1.000  H
  H35      1.0000 0.98480  0.09130  0.51400  Biso   1.000  H
  C36      1.0000 0.78260  0.07900  0.57730  Biso   1.000  C
  C37      1.0000 0.02280  0.33040  0.57040  Biso   1.000  C
  H36      1.0000 0.04120  0.36280  0.59850  Biso   1.000  H
  C38      1.0000 0.85090  0.18300  0.53350  Biso   1.000  C
  H37      1.0000 0.85850  0.23970  0.51950  Biso   1.000  H
  C39      1.0000 0.79500  0.16370  0.55670  Biso   1.000  C
  H38      1.0000 0.76540  0.20750  0.55860  Biso   1.000  H
  C40      1.0000 0.72060  0.05700  0.60180  Biso   1.000  C
  H39      1.0000 0.70280  0.11120  0.61670  Biso   1.000  H
  H40      1.0000 0.72550  0.01570  0.63210  Biso   1.000  H
  C41      1.0000 0.68810  0.94700  0.52450  Biso   1.000  C
  H41      1.0000 0.72310  0.91290  0.52060  Biso   1.000  H
  C42      1.0000 0.63590  0.93700  0.49730  Biso   1.000  C
  H42      1.0000 0.62940  0.89390  0.47020  Biso   1.000  H
  N13      1.0000 0.09330  0.50350  0.48630  Biso   1.000  N
  N14      1.0000 0.17930  0.48070  0.43950  Biso   1.000  N
  N15      1.0000 0.50330  0.13560  0.47890  Biso   1.000  N
  N16      1.0000 0.48250  0.27720  0.47630  Biso   1.000  N
  C43      1.0000 0.32620  0.48310  0.42490  Biso   1.000  C
  H43      1.0000 0.31870  0.53950  0.41080  Biso   1.000  H
  C44      1.0000 0.39590  0.38180  0.46890  Biso   1.000  C
  C45      1.0000 0.51170  0.25540  0.42800  Biso   1.000  C
  H44      1.0000 0.52180  0.29410  0.39940  Biso   1.000  H
  C46      1.0000 0.47950  0.20240  0.50700  Biso   1.000  C
  H45      1.0000 0.46320  0.19850  0.54250  Biso   1.000  H
  C47      1.0000 0.38370  0.46400  0.44850  Biso   1.000  C
  H46      1.0000 0.41340  0.50760  0.44990  Biso   1.000  H
  C48      1.0000 0.12110  0.45410  0.44770  Biso   1.000  C
  H47      1.0000 0.10280  0.40750  0.42880  Biso   1.000  H
  C49      1.0000 0.45670  0.36120  0.49480  Biso   1.000  C
  H48      1.0000 0.45210  0.35960  0.53480  Biso   1.000  H
  H49      1.0000 0.48480  0.40870  0.48600  Biso   1.000  H
  C50      1.0000 0.28260  0.42100  0.42270  Biso   1.000  C
  C51      1.0000 0.52280  0.16960  0.42960  Biso   1.000  C
  H50      1.0000 0.54120  0.13720  0.40150  Biso   1.000  H
  C52      1.0000 0.35090  0.31700  0.46650  Biso   1.000  C
  H51      1.0000 0.35850  0.26030  0.48050  Biso   1.000  H
  C53      1.0000 0.29500  0.33630  0.44330  Biso   1.000  C
  H52      1.0000 0.26540  0.29250  0.44140  Biso   1.000  H
  C54      1.0000 0.22060  0.44300  0.39820  Biso   1.000  C
  H53      1.0000 0.20280  0.38880  0.38330  Biso   1.000  H
  H54      1.0000 0.22550  0.48430  0.36790  Biso   1.000  H
  C55      1.0000 0.18810  0.55300  0.47550  Biso   1.000  C
  H55      1.0000 0.22310  0.58710  0.47940  Biso   1.000  H
  C56      1.0000 0.13590  0.56300  0.50270  Biso   1.000  C
  H56      1.0000 0.12940  0.60610  0.52980  Biso   1.000  H
  Co1      1.0000 0.50000  0.00000  0.50000  Biso   1.000  Co
  Co2      1.0000 0.00000  0.50000  0.50000  Biso   1.000  Co
  N17      1.0000 0.09330  0.49650  0.98630  Biso   1.000  N
  N18      1.0000 0.17930  0.51930  0.93950  Biso   1.000  N
  N19      1.0000 0.50330  0.86440  0.97890  Biso   1.000  N
  N20      1.0000 0.48250  0.72280  0.97630  Biso   1.000  N
  C57      1.0000 0.32620  0.51690  0.92490  Biso   1.000  C
  H57      1.0000 0.31870  0.46050  0.91080  Biso   1.000  H
  C58      1.0000 0.39590  0.61820  0.96890  Biso   1.000  C
  C59      1.0000 0.51170  0.74460  0.92800  Biso   1.000  C
  H58      1.0000 0.52180  0.70590  0.89940  Biso   1.000  H
  C60      1.0000 0.47950  0.79760  0.00700  Biso   1.000  C
  H59      1.0000 0.46320  0.80150  0.04250  Biso   1.000  H
  C61      1.0000 0.38370  0.53600  0.94850  Biso   1.000  C
  H60      1.0000 0.41340  0.49240  0.94990  Biso   1.000  H
  C62      1.0000 0.12110  0.54590  0.94770  Biso   1.000  C
  H61      1.0000 0.10280  0.59250  0.92880  Biso   1.000  H
  C63      1.0000 0.45670  0.63880  0.99480  Biso   1.000  C
  H62      1.0000 0.45210  0.64040  0.03480  Biso   1.000  H
  H63      1.0000 0.48480  0.59130  0.98600  Biso   1.000  H
  C64      1.0000 0.28260  0.57900  0.92270  Biso   1.000  C
  C65      1.0000 0.52280  0.83040  0.92960  Biso   1.000  C
  H64      1.0000 0.54120  0.86280  0.90150  Biso   1.000  H
  C66      1.0000 0.35090  0.68300  0.96650  Biso   1.000  C
  H65      1.0000 0.35850  0.73970  0.98050  Biso   1.000  H
  C67      1.0000 0.29500  0.66370  0.94330  Biso   1.000  C
  H66      1.0000 0.26540  0.70750  0.94140  Biso   1.000  H
  C68      1.0000 0.22060  0.55700  0.89820  Biso   1.000  C
  H67      1.0000 0.20280  0.61120  0.88330  Biso   1.000  H
  H68      1.0000 0.22550  0.51570  0.86790  Biso   1.000  H
  C69      1.0000 0.18810  0.44700  0.97550  Biso   1.000  C
  H69      1.0000 0.22310  0.41290  0.97940  Biso   1.000  H
  C70      1.0000 0.13590  0.43700  0.00270  Biso   1.000  C
  H70      1.0000 0.12940  0.39390  0.02980  Biso   1.000  H
  N21      1.0000 0.59330  0.00350  0.01370  Biso   1.000  N
  N22      1.0000 0.67930  0.98070  0.06050  Biso   1.000  N
  N23      1.0000 0.00330  0.63560  0.02110  Biso   1.000  N
  N24      1.0000 0.98250  0.77720  0.02370  Biso   1.000  N
  C71      1.0000 0.82620  0.98310  0.07510  Biso   1.000  C
  H71      1.0000 0.81870  0.03950  0.08920  Biso   1.000  H
  C72      1.0000 0.89590  0.88180  0.03110  Biso   1.000  C
  C73      1.0000 0.01170  0.75540  0.07200  Biso   1.000  C
  H72      1.0000 0.02180  0.79410  0.10060  Biso   1.000  H
  C74      1.0000 0.97950  0.70240  0.99300  Biso   1.000  C
  H73      1.0000 0.96320  0.69850  0.95750  Biso   1.000  H
  C75      1.0000 0.88370  0.96400  0.05150  Biso   1.000  C
  H74      1.0000 0.91340  0.00760  0.05010  Biso   1.000  H
  C76      1.0000 0.62110  0.95410  0.05230  Biso   1.000  C
  H75      1.0000 0.60280  0.90750  0.07120  Biso   1.000  H
  C77      1.0000 0.95670  0.86120  0.00520  Biso   1.000  C
  H76      1.0000 0.95210  0.85960  0.96520  Biso   1.000  H
  H77      1.0000 0.98480  0.90870  0.01400  Biso   1.000  H
  C78      1.0000 0.78260  0.92100  0.07730  Biso   1.000  C
  C79      1.0000 0.02280  0.66960  0.07040  Biso   1.000  C
  H78      1.0000 0.04120  0.63720  0.09850  Biso   1.000  H
  C80      1.0000 0.85090  0.81700  0.03350  Biso   1.000  C
  H79      1.0000 0.85850  0.76030  0.01950  Biso   1.000  H
  C81      1.0000 0.79500  0.83630  0.05670  Biso   1.000  C
  H80      1.0000 0.76540  0.79250  0.05860  Biso   1.000  H
  C82      1.0000 0.72060  0.94300  0.10180  Biso   1.000  C
  H81      1.0000 0.70280  0.88880  0.11670  Biso   1.000  H
  H82      1.0000 0.72550  0.98430  0.13210  Biso   1.000  H
  C83      1.0000 0.68810  0.05300  0.02450  Biso   1.000  C
  H83      1.0000 0.72310  0.08710  0.02060  Biso   1.000  H
  C84      1.0000 0.63590  0.06300  0.99730  Biso   1.000  C
  H84      1.0000 0.62940  0.10610  0.97020  Biso   1.000  H
  N25      1.0000 0.90670  0.50350  0.01370  Biso   1.000  N
  N26      1.0000 0.82070  0.48070  0.06050  Biso   1.000  N
  N27      1.0000 0.49670  0.13560  0.02110  Biso   1.000  N
  N28      1.0000 0.51750  0.27720  0.02370  Biso   1.000  N
  C85      1.0000 0.67380  0.48310  0.07510  Biso   1.000  C
  H85      1.0000 0.68130  0.53950  0.08920  Biso   1.000  H
  C86      1.0000 0.60410  0.38180  0.03110  Biso   1.000  C
  C87      1.0000 0.48830  0.25540  0.07200  Biso   1.000  C
  H86      1.0000 0.47820  0.29410  0.10060  Biso   1.000  H
  C88      1.0000 0.52050  0.20240  0.99300  Biso   1.000  C
  H87      1.0000 0.53680  0.19850  0.95750  Biso   1.000  H
  C89      1.0000 0.61630  0.46400  0.05150  Biso   1.000  C
  H88      1.0000 0.58660  0.50760  0.05010  Biso   1.000  H
  C90      1.0000 0.87890  0.45410  0.05230  Biso   1.000  C
  H89      1.0000 0.89720  0.40750  0.07120  Biso   1.000  H
  C91      1.0000 0.54330  0.36120  0.00520  Biso   1.000  C
  H90      1.0000 0.54790  0.35960  0.96520  Biso   1.000  H
  H91      1.0000 0.51520  0.40870  0.01400  Biso   1.000  H
  C92      1.0000 0.71740  0.42100  0.07730  Biso   1.000  C
  C93      1.0000 0.47720  0.16960  0.07040  Biso   1.000  C
  H92      1.0000 0.45880  0.13720  0.09850  Biso   1.000  H
  C94      1.0000 0.64910  0.31700  0.03350  Biso   1.000  C
  H93      1.0000 0.64150  0.26030  0.01950  Biso   1.000  H
  C95      1.0000 0.70500  0.33630  0.05670  Biso   1.000  C
  H94      1.0000 0.73460  0.29250  0.05860  Biso   1.000  H
  C96      1.0000 0.77940  0.44300  0.10180  Biso   1.000  C
  H95      1.0000 0.79720  0.38880  0.11670  Biso   1.000  H
  H96      1.0000 0.77450  0.48430  0.13210  Biso   1.000  H
  C97      1.0000 0.81190  0.55300  0.02450  Biso   1.000  C
  H97      1.0000 0.77690  0.58710  0.02060  Biso   1.000  H
  C98      1.0000 0.86410  0.56300  0.99730  Biso   1.000  C
  H98      1.0000 0.87060  0.60610  0.97020  Biso   1.000  H
  N29      1.0000 0.40670  0.99650  0.98630  Biso   1.000  N
  N30      1.0000 0.32070  0.01930  0.93950  Biso   1.000  N
  N31      1.0000 0.99670  0.36440  0.97890  Biso   1.000  N
  N32      1.0000 0.01750  0.22280  0.97630  Biso   1.000  N
  C99      1.0000 0.17380  0.01690  0.92490  Biso   1.000  C
  H99      1.0000 0.18130  0.96050  0.91080  Biso   1.000  H
  C100     1.0000 0.10410  0.11820  0.96890  Biso   1.000  C
  C101     1.0000 0.98830  0.24460  0.92800  Biso   1.000  C
  H100     1.0000 0.97820  0.20590  0.89940  Biso   1.000  H
  C102     1.0000 0.02050  0.29760  0.00700  Biso   1.000  C
  H101     1.0000 0.03680  0.30150  0.04250  Biso   1.000  H
  C103     1.0000 0.11630  0.03600  0.94850  Biso   1.000  C
  H102     1.0000 0.08660  0.99240  0.94990  Biso   1.000  H
  C104     1.0000 0.37890  0.04590  0.94770  Biso   1.000  C
  H103     1.0000 0.39720  0.09250  0.92880  Biso   1.000  H
  C105     1.0000 0.04330  0.13880  0.99480  Biso   1.000  C
  H104     1.0000 0.04790  0.14040  0.03480  Biso   1.000  H
  H105     1.0000 0.01520  0.09130  0.98600  Biso   1.000  H
  C106     1.0000 0.21740  0.07900  0.92270  Biso   1.000  C
  C107     1.0000 0.97720  0.33040  0.92960  Biso   1.000  C
  H106     1.0000 0.95880  0.36280  0.90150  Biso   1.000  H
  C108     1.0000 0.14910  0.18300  0.96650  Biso   1.000  C
  H107     1.0000 0.14150  0.23970  0.98050  Biso   1.000  H
  C109     1.0000 0.20500  0.16370  0.94330  Biso   1.000  C
  H108     1.0000 0.23460  0.20750  0.94140  Biso   1.000  H
  C110     1.0000 0.27940  0.05700  0.89820  Biso   1.000  C
  H109     1.0000 0.29720  0.11120  0.88330  Biso   1.000  H
  H110     1.0000 0.27450  0.01570  0.86790  Biso   1.000  H
  C111     1.0000 0.31190  0.94700  0.97550  Biso   1.000  C
  H111     1.0000 0.27690  0.91290  0.97940  Biso   1.000  H
  C112     1.0000 0.36410  0.93700  0.00270  Biso   1.000  C
  H112     1.0000 0.37060  0.89390  0.02980  Biso   1.000  H
  Co3      1.0000 0.00000  0.50000  0.00000  Biso   1.000  Co
  Co4      1.0000 0.50000  0.00000  0.00000  Biso   1.000  Co
