data_image0
_cell_length_a       14.9647
_cell_length_b       18.433
_cell_length_c       17.2557
_cell_angle_alpha    90
_cell_angle_beta     111.517
_cell_angle_gamma    90

_symmetry_space_group_name_H-M    "P 1"
_symmetry_int_tables_number       1

loop_
  _symmetry_equiv_pos_as_xyz
  'x, y, z'

loop_
  _atom_site_label
  _atom_site_occupancy
  _atom_site_fract_x
  _atom_site_fract_y
  _atom_site_fract_z
  _atom_site_thermal_displace_type
  _atom_site_B_iso_or_equiv
  _atom_site_type_symbol
  Cd1      1.0000 0.03938  0.25088  0.38962  Biso   1.000  Cd
  Cd2      1.0000 0.48154  0.98240  0.82811  Biso   1.000  Cd
  O1       1.0000 0.16060  0.15564  0.42990  Biso   1.000  O
  O2       1.0000 0.03720  0.14825  0.31150  Biso   1.000  O
  O3       1.0000 0.96280  0.91583  0.16710  Biso   1.000  O
  O4       1.0000 0.06800  0.82596  0.19850  Biso   1.000  O
  N1       1.0000 0.32330  0.00000  0.73430  Biso   1.000  N
  N2       1.0000 0.91120  0.19720  0.42270  Biso   1.000  N
  N3       1.0000 0.64620  0.49987  0.40160  Biso   1.000  N
  N4       1.0000 0.11780  0.30690  0.51630  Biso   1.000  N
  C1       1.0000 0.13790  0.04240  0.63170  Biso   1.000  C
  C2       1.0000 0.21780  0.06740  0.61820  Biso   1.000  C
  H1       1.0000 0.21140  0.09950  0.57490  Biso   1.000  H
  C3       1.0000 0.30720  0.04390  0.66970  Biso   1.000  C
  H2       1.0000 0.36010  0.06000  0.65850  Biso   1.000  H
  C4       1.0000 0.24560  0.97450  0.74530  Biso   1.000  C
  H3       1.0000 0.25410  0.94260  0.78920  Biso   1.000  H
  C5       1.0000 0.15410  0.99250  0.69540  Biso   1.000  C
  H4       1.0000 0.10230  0.97120  0.70420  Biso   1.000  H
  C6       1.0000 0.03990  0.06650  0.58250  Biso   1.000  C
  H5       1.0000 0.98970  0.04040  0.58850  Biso   1.000  H
  C7       1.0000 0.01700  0.12140  0.53080  Biso   1.000  C
  H6       1.0000 0.06730  0.14840  0.52630  Biso   1.000  H
  C8       1.0000 0.91920  0.14460  0.47920  Biso   1.000  C
  C9       1.0000 0.82310  0.21760  0.37350  Biso   1.000  C
  H7       1.0000 0.81730  0.25270  0.33320  Biso   1.000  H
  C10      1.0000 0.74030  0.18960  0.37900  Biso   1.000  C
  H8       1.0000 0.68030  0.20650  0.34440  Biso   1.000  H
  C11      1.0000 0.74810  0.13640  0.43630  Biso   1.000  C
  H9       1.0000 0.69340  0.11560  0.44050  Biso   1.000  H
  C12      1.0000 0.83800  0.11400  0.48770  Biso   1.000  C
  H10      1.0000 0.84470  0.07880  0.52800  Biso   1.000  H
  C13      1.0000 0.83600  0.45370  0.48660  Biso   1.000  C
  C14      1.0000 0.78540  0.43430  0.40390  Biso   1.000  C
  H11      1.0000 0.81400  0.40520  0.37550  Biso   1.000  H
  C15      1.0000 0.69220  0.45870  0.36430  Biso   1.000  C
  H12      1.0000 0.65980  0.44580  0.30890  Biso   1.000  H
  C16      1.0000 0.69460  0.51800  0.48040  Biso   1.000  C
  H13      1.0000 0.66380  0.54640  0.50760  Biso   1.000  H
  C17      1.0000 0.78730  0.49710  0.52380  Biso   1.000  C
  H14      1.0000 0.81800  0.51200  0.57870  Biso   1.000  H
  C18      1.0000 0.93480  0.43050  0.53260  Biso   1.000  C
  H15      1.0000 0.96740  0.45360  0.58300  Biso   1.000  H
  C19      1.0000 0.98260  0.37980  0.50920  Biso   1.000  C
  H16      1.0000 0.94960  0.35610  0.45930  Biso   1.000  H
  C20      1.0000 0.08160  0.35720  0.55400  Biso   1.000  C
  C21      1.0000 0.20960  0.28710  0.55330  Biso   1.000  C
  H17      1.0000 0.23410  0.25260  0.52700  Biso   1.000  H
  C22      1.0000 0.27070  0.31530  0.62910  Biso   1.000  C
  H18      1.0000 0.33460  0.30080  0.65260  Biso   1.000  H
  C23      1.0000 0.23350  0.36500  0.66800  Biso   1.000  C
  H19      1.0000 0.27150  0.38380  0.71960  Biso   1.000  H
  C24      1.0000 0.13980  0.38680  0.63030  Biso   1.000  C
  H20      1.0000 0.11490  0.42160  0.65570  Biso   1.000  H
  C25      1.0000 0.11480  0.12330  0.36420  Biso   1.000  C
  C26      1.0000 0.14840  0.05100  0.34640  Biso   1.000  C
  C27      1.0000 0.08710  0.00640  0.28460  Biso   1.000  C
  H21      1.0000 0.02580  0.02290  0.25290  Biso   1.000  H
  C28      1.0000 0.11530  0.93780  0.26930  Biso   1.000  C
  C29      1.0000 0.20860  0.91490  0.31430  Biso   1.000  C
  H22      1.0000 0.22930  0.86970  0.30390  Biso   1.000  H
  C30      1.0000 0.27070  0.96000  0.37490  Biso   1.000  C
  H23      1.0000 0.33360  0.94510  0.40370  Biso   1.000  H
  C31      1.0000 0.24060  0.02610  0.39280  Biso   1.000  C
  H24      1.0000 0.28160  0.05430  0.43580  Biso   1.000  H
  C32      1.0000 0.04250  0.89040  0.20720  Biso   1.000  C
  Cd3      1.0000 0.96062  0.75088  0.11038  Biso   1.000  Cd
  Cd4      1.0000 0.51846  0.48240  0.67189  Biso   1.000  Cd
  O5       1.0000 0.83940  0.65564  0.07010  Biso   1.000  O
  O6       1.0000 0.96280  0.64825  0.18850  Biso   1.000  O
  O7       1.0000 0.03720  0.41583  0.33290  Biso   1.000  O
  O8       1.0000 0.93200  0.32596  0.30150  Biso   1.000  O
  N5       1.0000 0.67670  0.50000  0.76570  Biso   1.000  N
  N6       1.0000 0.08880  0.69720  0.07730  Biso   1.000  N
  N7       1.0000 0.35380  0.99987  0.09840  Biso   1.000  N
  N8       1.0000 0.88220  0.80690  0.98370  Biso   1.000  N
  C33      1.0000 0.86210  0.54240  0.86830  Biso   1.000  C
  C34      1.0000 0.78220  0.56740  0.88180  Biso   1.000  C
  H25      1.0000 0.78860  0.59950  0.92510  Biso   1.000  H
  C35      1.0000 0.69280  0.54390  0.83030  Biso   1.000  C
  H26      1.0000 0.63990  0.56000  0.84150  Biso   1.000  H
  C36      1.0000 0.75440  0.47450  0.75470  Biso   1.000  C
  H27      1.0000 0.74590  0.44260  0.71080  Biso   1.000  H
  C37      1.0000 0.84590  0.49250  0.80460  Biso   1.000  C
  H28      1.0000 0.89770  0.47120  0.79580  Biso   1.000  H
  C38      1.0000 0.96010  0.56650  0.91750  Biso   1.000  C
  H29      1.0000 0.01030  0.54040  0.91150  Biso   1.000  H
  C39      1.0000 0.98300  0.62140  0.96920  Biso   1.000  C
  H30      1.0000 0.93270  0.64840  0.97370  Biso   1.000  H
  C40      1.0000 0.08080  0.64460  0.02080  Biso   1.000  C
  C41      1.0000 0.17690  0.71760  0.12650  Biso   1.000  C
  H31      1.0000 0.18270  0.75270  0.16680  Biso   1.000  H
  C42      1.0000 0.25970  0.68960  0.12100  Biso   1.000  C
  H32      1.0000 0.31970  0.70650  0.15560  Biso   1.000  H
  C43      1.0000 0.25190  0.63640  0.06370  Biso   1.000  C
  H33      1.0000 0.30660  0.61560  0.05950  Biso   1.000  H
  C44      1.0000 0.16200  0.61400  0.01230  Biso   1.000  C
  H34      1.0000 0.15530  0.57880  0.97200  Biso   1.000  H
  C45      1.0000 0.16400  0.95370  0.01340  Biso   1.000  C
  C46      1.0000 0.21460  0.93430  0.09610  Biso   1.000  C
  H35      1.0000 0.18600  0.90520  0.12450  Biso   1.000  H
  C47      1.0000 0.30780  0.95870  0.13570  Biso   1.000  C
  H36      1.0000 0.34020  0.94580  0.19110  Biso   1.000  H
  C48      1.0000 0.30540  0.01800  0.01960  Biso   1.000  C
  H37      1.0000 0.33620  0.04640  0.99240  Biso   1.000  H
  C49      1.0000 0.21270  0.99710  0.97620  Biso   1.000  C
  H38      1.0000 0.18200  0.01200  0.92130  Biso   1.000  H
  C50      1.0000 0.06520  0.93050  0.96740  Biso   1.000  C
  H39      1.0000 0.03260  0.95360  0.91700  Biso   1.000  H
  C51      1.0000 0.01740  0.87980  0.99080  Biso   1.000  C
  H40      1.0000 0.05040  0.85610  0.04070  Biso   1.000  H
  C52      1.0000 0.91840  0.85720  0.94600  Biso   1.000  C
  C53      1.0000 0.79040  0.78710  0.94670  Biso   1.000  C
  H41      1.0000 0.76590  0.75260  0.97300  Biso   1.000  H
  C54      1.0000 0.72930  0.81530  0.87090  Biso   1.000  C
  H42      1.0000 0.66540  0.80080  0.84740  Biso   1.000  H
  C55      1.0000 0.76650  0.86500  0.83200  Biso   1.000  C
  H43      1.0000 0.72850  0.88380  0.78040  Biso   1.000  H
  C56      1.0000 0.86020  0.88680  0.86970  Biso   1.000  C
  H44      1.0000 0.88510  0.92160  0.84430  Biso   1.000  H
  C57      1.0000 0.88520  0.62330  0.13580  Biso   1.000  C
  C58      1.0000 0.85160  0.55100  0.15360  Biso   1.000  C
  C59      1.0000 0.91290  0.50640  0.21540  Biso   1.000  C
  H45      1.0000 0.97420  0.52290  0.24710  Biso   1.000  H
  C60      1.0000 0.88470  0.43780  0.23070  Biso   1.000  C
  C61      1.0000 0.79140  0.41490  0.18570  Biso   1.000  C
  H46      1.0000 0.77070  0.36970  0.19610  Biso   1.000  H
  C62      1.0000 0.72930  0.46000  0.12510  Biso   1.000  C
  H47      1.0000 0.66640  0.44510  0.09630  Biso   1.000  H
  C63      1.0000 0.75940  0.52610  0.10720  Biso   1.000  C
  H48      1.0000 0.71840  0.55430  0.06420  Biso   1.000  H
  C64      1.0000 0.95750  0.39040  0.29280  Biso   1.000  C
  Cd5      1.0000 0.96062  0.74912  0.61038  Biso   1.000  Cd
  Cd6      1.0000 0.51846  0.01760  0.17189  Biso   1.000  Cd
  O9       1.0000 0.83940  0.84436  0.57010  Biso   1.000  O
  O10      1.0000 0.96280  0.85175  0.68850  Biso   1.000  O
  O11      1.0000 0.03720  0.08417  0.83290  Biso   1.000  O
  O12      1.0000 0.93200  0.17404  0.80150  Biso   1.000  O
  N9       1.0000 0.67670  0.00000  0.26570  Biso   1.000  N
  N10      1.0000 0.08880  0.80280  0.57730  Biso   1.000  N
  N11      1.0000 0.35380  0.50013  0.59840  Biso   1.000  N
  N12      1.0000 0.88220  0.69310  0.48370  Biso   1.000  N
  C65      1.0000 0.86210  0.95760  0.36830  Biso   1.000  C
  C66      1.0000 0.78220  0.93260  0.38180  Biso   1.000  C
  H49      1.0000 0.78860  0.90050  0.42510  Biso   1.000  H
  C67      1.0000 0.69280  0.95610  0.33030  Biso   1.000  C
  H50      1.0000 0.63990  0.94000  0.34150  Biso   1.000  H
  C68      1.0000 0.75440  0.02550  0.25470  Biso   1.000  C
  H51      1.0000 0.74590  0.05740  0.21080  Biso   1.000  H
  C69      1.0000 0.84590  0.00750  0.30460  Biso   1.000  C
  H52      1.0000 0.89770  0.02880  0.29580  Biso   1.000  H
  C70      1.0000 0.96010  0.93350  0.41750  Biso   1.000  C
  H53      1.0000 0.01030  0.95960  0.41150  Biso   1.000  H
  C71      1.0000 0.98300  0.87860  0.46920  Biso   1.000  C
  H54      1.0000 0.93270  0.85160  0.47370  Biso   1.000  H
  C72      1.0000 0.08080  0.85540  0.52080  Biso   1.000  C
  C73      1.0000 0.17690  0.78240  0.62650  Biso   1.000  C
  H55      1.0000 0.18270  0.74730  0.66680  Biso   1.000  H
  C74      1.0000 0.25970  0.81040  0.62100  Biso   1.000  C
  H56      1.0000 0.31970  0.79350  0.65560  Biso   1.000  H
  C75      1.0000 0.25190  0.86360  0.56370  Biso   1.000  C
  H57      1.0000 0.30660  0.88440  0.55950  Biso   1.000  H
  C76      1.0000 0.16200  0.88600  0.51230  Biso   1.000  C
  H58      1.0000 0.15530  0.92120  0.47200  Biso   1.000  H
  C77      1.0000 0.16400  0.54630  0.51340  Biso   1.000  C
  C78      1.0000 0.21460  0.56570  0.59610  Biso   1.000  C
  H59      1.0000 0.18600  0.59480  0.62450  Biso   1.000  H
  C79      1.0000 0.30780  0.54130  0.63570  Biso   1.000  C
  H60      1.0000 0.34020  0.55420  0.69110  Biso   1.000  H
  C80      1.0000 0.30540  0.48200  0.51960  Biso   1.000  C
  H61      1.0000 0.33620  0.45360  0.49240  Biso   1.000  H
  C81      1.0000 0.21270  0.50290  0.47620  Biso   1.000  C
  H62      1.0000 0.18200  0.48800  0.42130  Biso   1.000  H
  C82      1.0000 0.06520  0.56950  0.46740  Biso   1.000  C
  H63      1.0000 0.03260  0.54640  0.41700  Biso   1.000  H
  C83      1.0000 0.01740  0.62020  0.49080  Biso   1.000  C
  H64      1.0000 0.05040  0.64390  0.54070  Biso   1.000  H
  C84      1.0000 0.91840  0.64280  0.44600  Biso   1.000  C
  C85      1.0000 0.79040  0.71290  0.44670  Biso   1.000  C
  H65      1.0000 0.76590  0.74740  0.47300  Biso   1.000  H
  C86      1.0000 0.72930  0.68470  0.37090  Biso   1.000  C
  H66      1.0000 0.66540  0.69920  0.34740  Biso   1.000  H
  C87      1.0000 0.76650  0.63500  0.33200  Biso   1.000  C
  H67      1.0000 0.72850  0.61620  0.28040  Biso   1.000  H
  C88      1.0000 0.86020  0.61320  0.36970  Biso   1.000  C
  H68      1.0000 0.88510  0.57840  0.34430  Biso   1.000  H
  C89      1.0000 0.88520  0.87670  0.63580  Biso   1.000  C
  C90      1.0000 0.85160  0.94900  0.65360  Biso   1.000  C
  C91      1.0000 0.91290  0.99360  0.71540  Biso   1.000  C
  H69      1.0000 0.97420  0.97710  0.74710  Biso   1.000  H
  C92      1.0000 0.88470  0.06220  0.73070  Biso   1.000  C
  C93      1.0000 0.79140  0.08510  0.68570  Biso   1.000  C
  H70      1.0000 0.77070  0.13030  0.69610  Biso   1.000  H
  C94      1.0000 0.72930  0.04000  0.62510  Biso   1.000  C
  H71      1.0000 0.66640  0.05490  0.59630  Biso   1.000  H
  C95      1.0000 0.75940  0.97390  0.60720  Biso   1.000  C
  H72      1.0000 0.71840  0.94570  0.56420  Biso   1.000  H
  C96      1.0000 0.95750  0.10960  0.79280  Biso   1.000  C
  Cd7      1.0000 0.03938  0.24912  0.88962  Biso   1.000  Cd
  Cd8      1.0000 0.48154  0.51760  0.32811  Biso   1.000  Cd
  O13      1.0000 0.16060  0.34436  0.92990  Biso   1.000  O
  O14      1.0000 0.03720  0.35175  0.81150  Biso   1.000  O
  O15      1.0000 0.96280  0.58417  0.66710  Biso   1.000  O
  O16      1.0000 0.06800  0.67404  0.69850  Biso   1.000  O
  N13      1.0000 0.32330  0.50000  0.23430  Biso   1.000  N
  N14      1.0000 0.91120  0.30280  0.92270  Biso   1.000  N
  N15      1.0000 0.64620  0.00013  0.90160  Biso   1.000  N
  N16      1.0000 0.11780  0.19310  0.01630  Biso   1.000  N
  C97      1.0000 0.13790  0.45760  0.13170  Biso   1.000  C
  C98      1.0000 0.21780  0.43260  0.11820  Biso   1.000  C
  H73      1.0000 0.21140  0.40050  0.07490  Biso   1.000  H
  C99      1.0000 0.30720  0.45610  0.16970  Biso   1.000  C
  H74      1.0000 0.36010  0.44000  0.15850  Biso   1.000  H
  C100     1.0000 0.24560  0.52550  0.24530  Biso   1.000  C
  H75      1.0000 0.25410  0.55740  0.28920  Biso   1.000  H
  C101     1.0000 0.15410  0.50750  0.19540  Biso   1.000  C
  H76      1.0000 0.10230  0.52880  0.20420  Biso   1.000  H
  C102     1.0000 0.03990  0.43350  0.08250  Biso   1.000  C
  H77      1.0000 0.98970  0.45960  0.08850  Biso   1.000  H
  C103     1.0000 0.01700  0.37860  0.03080  Biso   1.000  C
  H78      1.0000 0.06730  0.35160  0.02630  Biso   1.000  H
  C104     1.0000 0.91920  0.35540  0.97920  Biso   1.000  C
  C105     1.0000 0.82310  0.28240  0.87350  Biso   1.000  C
  H79      1.0000 0.81730  0.24730  0.83320  Biso   1.000  H
  C106     1.0000 0.74030  0.31040  0.87900  Biso   1.000  C
  H80      1.0000 0.68030  0.29350  0.84440  Biso   1.000  H
  C107     1.0000 0.74810  0.36360  0.93630  Biso   1.000  C
  H81      1.0000 0.69340  0.38440  0.94050  Biso   1.000  H
  C108     1.0000 0.83800  0.38600  0.98770  Biso   1.000  C
  H82      1.0000 0.84470  0.42120  0.02800  Biso   1.000  H
  C109     1.0000 0.83600  0.04630  0.98660  Biso   1.000  C
  C110     1.0000 0.78540  0.06570  0.90390  Biso   1.000  C
  H83      1.0000 0.81400  0.09480  0.87550  Biso   1.000  H
  C111     1.0000 0.69220  0.04130  0.86430  Biso   1.000  C
  H84      1.0000 0.65980  0.05420  0.80890  Biso   1.000  H
  C112     1.0000 0.69460  0.98200  0.98040  Biso   1.000  C
  H85      1.0000 0.66380  0.95360  0.00760  Biso   1.000  H
  C113     1.0000 0.78730  0.00290  0.02380  Biso   1.000  C
  H86      1.0000 0.81800  0.98800  0.07870  Biso   1.000  H
  C114     1.0000 0.93480  0.06950  0.03260  Biso   1.000  C
  H87      1.0000 0.96740  0.04640  0.08300  Biso   1.000  H
  C115     1.0000 0.98260  0.12020  0.00920  Biso   1.000  C
  H88      1.0000 0.94960  0.14390  0.95930  Biso   1.000  H
  C116     1.0000 0.08160  0.14280  0.05400  Biso   1.000  C
  C117     1.0000 0.20960  0.21290  0.05330  Biso   1.000  C
  H89      1.0000 0.23410  0.24740  0.02700  Biso   1.000  H
  C118     1.0000 0.27070  0.18470  0.12910  Biso   1.000  C
  H90      1.0000 0.33460  0.19920  0.15260  Biso   1.000  H
  C119     1.0000 0.23350  0.13500  0.16800  Biso   1.000  C
  H91      1.0000 0.27150  0.11620  0.21960  Biso   1.000  H
  C120     1.0000 0.13980  0.11320  0.13030  Biso   1.000  C
  H92      1.0000 0.11490  0.07840  0.15570  Biso   1.000  H
  C121     1.0000 0.11480  0.37670  0.86420  Biso   1.000  C
  C122     1.0000 0.14840  0.44900  0.84640  Biso   1.000  C
  C123     1.0000 0.08710  0.49360  0.78460  Biso   1.000  C
  H93      1.0000 0.02580  0.47710  0.75290  Biso   1.000  H
  C124     1.0000 0.11530  0.56220  0.76930  Biso   1.000  C
  C125     1.0000 0.20860  0.58510  0.81430  Biso   1.000  C
  H94      1.0000 0.22930  0.63030  0.80390  Biso   1.000  H
  C126     1.0000 0.27070  0.54000  0.87490  Biso   1.000  C
  H95      1.0000 0.33360  0.55490  0.90370  Biso   1.000  H
  C127     1.0000 0.24060  0.47390  0.89280  Biso   1.000  C
  H96      1.0000 0.28160  0.44570  0.93580  Biso   1.000  H
  C128     1.0000 0.04250  0.60960  0.70720  Biso   1.000  C
