data_image0
_cell_length_a       14.855
_cell_length_b       18.3497
_cell_length_c       17.3074
_cell_angle_alpha    90
_cell_angle_beta     109.786
_cell_angle_gamma    90

_symmetry_space_group_name_H-M    "P 1"
_symmetry_int_tables_number       1

loop_
  _symmetry_equiv_pos_as_xyz
  'x, y, z'

loop_
  _atom_site_label
  _atom_site_occupancy
  _atom_site_fract_x
  _atom_site_fract_y
  _atom_site_fract_z
  _atom_site_thermal_displace_type
  _atom_site_B_iso_or_equiv
  _atom_site_type_symbol
  Cd1      1.0000 0.96006  0.75173  0.10537  Biso   1.000  Cd
  Cd2      1.0000 0.51374  0.49090  0.66842  Biso   1.000  Cd
  O1       1.0000 0.97498  0.64952  0.19184  Biso   1.000  O
  O2       1.0000 0.85238  0.65389  0.07730  Biso   1.000  O
  O3       1.0000 0.04324  0.41291  0.33637  Biso   1.000  O
  O4       1.0000 0.93333  0.32631  0.30939  Biso   1.000  O
  O5       1.0000 0.64498  0.44485  0.09739  Biso   1.000  O
  H1       1.0000 0.62570  0.41610  0.12460  Biso   1.000  H
  N1       1.0000 0.08613  0.69566  0.06806  Biso   1.000  N
  N2       1.0000 0.67109  0.51058  0.75844  Biso   1.000  N
  N3       1.0000 0.87886  0.80696  0.98197  Biso   1.000  N
  N4       1.0000 0.34960  0.99633  0.09453  Biso   1.000  N
  C1       1.0000 0.07680  0.64149  0.01349  Biso   1.000  C
  C2       1.0000 0.17480  0.71480  0.11580  Biso   1.000  C
  H2       1.0000 0.18150  0.75160  0.15420  Biso   1.000  H
  C3       1.0000 0.25590  0.68260  0.11060  Biso   1.000  C
  H3       1.0000 0.31610  0.69800  0.14420  Biso   1.000  H
  C4       1.0000 0.24670  0.62730  0.05480  Biso   1.000  C
  H4       1.0000 0.30040  0.60420  0.05020  Biso   1.000  H
  C5       1.0000 0.15680  0.60700  0.00620  Biso   1.000  C
  H5       1.0000 0.14910  0.56980  0.96800  Biso   1.000  H
  C6       1.0000 0.97940  0.62163  0.96260  Biso   1.000  C
  H6       1.0000 0.93070  0.65260  0.96460  Biso   1.000  H
  C7       1.0000 0.95390  0.56450  0.91460  Biso   1.000  C
  H7       1.0000 0.00250  0.53340  0.91250  Biso   1.000  H
  C8       1.0000 0.85590  0.54517  0.86380  Biso   1.000  C
  C9       1.0000 0.77580  0.57842  0.87190  Biso   1.000  C
  H8       1.0000 0.78220  0.61300  0.91270  Biso   1.000  H
  C10      1.0000 0.68610  0.55954  0.81868  Biso   1.000  C
  H9       1.0000 0.63320  0.58230  0.82520  Biso   1.000  H
  C11      1.0000 0.74780  0.47620  0.75360  Biso   1.000  C
  H10      1.0000 0.73910  0.44040  0.71370  Biso   1.000  H
  C12      1.0000 0.83900  0.49090  0.80440  Biso   1.000  C
  H11      1.0000 0.89000  0.46430  0.79930  Biso   1.000  H
  C13      1.0000 0.91420  0.85772  0.94395  Biso   1.000  C
  C14      1.0000 0.78730  0.78630  0.94740  Biso   1.000  C
  H12      1.0000 0.76310  0.75140  0.97410  Biso   1.000  H
  C15      1.0000 0.72780  0.81424  0.87460  Biso   1.000  C
  H13      1.0000 0.66450  0.79910  0.85270  Biso   1.000  H
  C16      1.0000 0.76400  0.86520  0.83450  Biso   1.000  C
  H14      1.0000 0.72590  0.88420  0.78430  Biso   1.000  H
  C17      1.0000 0.85680  0.88720  0.86960  Biso   1.000  C
  H15      1.0000 0.88180  0.92220  0.84350  Biso   1.000  H
  C18      1.0000 0.01350  0.88087  0.98595  Biso   1.000  C
  H16      1.0000 0.04630  0.85670  0.03460  Biso   1.000  H
  C19      1.0000 0.06160  0.93166  0.96307  Biso   1.000  C
  H17      1.0000 0.03080  0.95570  0.91390  Biso   1.000  H
  C20      1.0000 0.16070  0.95342  0.00942  Biso   1.000  C
  C21      1.0000 0.20780  0.93262  0.09004  Biso   1.000  C
  H18      1.0000 0.17700  0.90350  0.11730  Biso   1.000  H
  C22      1.0000 0.30020  0.95514  0.12943  Biso   1.000  C
  H19      1.0000 0.33000  0.94080  0.18370  Biso   1.000  H
  C23      1.0000 0.30450  0.01703  0.01706  Biso   1.000  C
  H20      1.0000 0.33730  0.04600  0.99140  Biso   1.000  H
  C24      1.0000 0.21150  0.99754  0.97340  Biso   1.000  C
  H21      1.0000 0.18280  0.01390  0.91980  Biso   1.000  H
  C25      1.0000 0.89920  0.62285  0.14281  Biso   1.000  C
  C26      1.0000 0.86410  0.55077  0.16320  Biso   1.000  C
  C27      1.0000 0.92420  0.50639  0.22313  Biso   1.000  C
  H22      1.0000 0.98590  0.52190  0.25290  Biso   1.000  H
  C28      1.0000 0.89250  0.43872  0.23886  Biso   1.000  C
  C29      1.0000 0.96250  0.38910  0.29936  Biso   1.000  C
  C30      1.0000 0.79880  0.41731  0.19811  Biso   1.000  C
  H23      1.0000 0.77700  0.37250  0.20960  Biso   1.000  H
  C31      1.0000 0.73779  0.46323  0.14005  Biso   1.000  C
  C32      1.0000 0.77130  0.52932  0.12088  Biso   1.000  C
  H24      1.0000 0.73140  0.55890  0.07980  Biso   1.000  H
  Cd3      1.0000 0.03994  0.25173  0.39463  Biso   1.000  Cd
  Cd4      1.0000 0.48626  0.99090  0.83158  Biso   1.000  Cd
  O6       1.0000 0.02502  0.14952  0.30816  Biso   1.000  O
  O7       1.0000 0.14762  0.15389  0.42270  Biso   1.000  O
  O8       1.0000 0.95676  0.91291  0.16363  Biso   1.000  O
  O9       1.0000 0.06667  0.82631  0.19061  Biso   1.000  O
  O10      1.0000 0.35502  0.94485  0.40261  Biso   1.000  O
  H25      1.0000 0.37430  0.91610  0.37540  Biso   1.000  H
  N5       1.0000 0.91387  0.19566  0.43194  Biso   1.000  N
  N6       1.0000 0.32891  0.01058  0.74156  Biso   1.000  N
  N7       1.0000 0.12114  0.30696  0.51803  Biso   1.000  N
  N8       1.0000 0.65040  0.49633  0.40547  Biso   1.000  N
  C33      1.0000 0.92320  0.14149  0.48651  Biso   1.000  C
  C34      1.0000 0.82520  0.21480  0.38420  Biso   1.000  C
  H26      1.0000 0.81850  0.25160  0.34580  Biso   1.000  H
  C35      1.0000 0.74410  0.18260  0.38940  Biso   1.000  C
  H27      1.0000 0.68390  0.19800  0.35580  Biso   1.000  H
  C36      1.0000 0.75330  0.12730  0.44520  Biso   1.000  C
  H28      1.0000 0.69960  0.10420  0.44980  Biso   1.000  H
  C37      1.0000 0.84320  0.10700  0.49380  Biso   1.000  C
  H29      1.0000 0.85090  0.06980  0.53200  Biso   1.000  H
  C38      1.0000 0.02060  0.12163  0.53740  Biso   1.000  C
  H30      1.0000 0.06930  0.15260  0.53540  Biso   1.000  H
  C39      1.0000 0.04610  0.06450  0.58540  Biso   1.000  C
  H31      1.0000 0.99750  0.03340  0.58750  Biso   1.000  H
  C40      1.0000 0.14410  0.04517  0.63620  Biso   1.000  C
  C41      1.0000 0.22420  0.07842  0.62810  Biso   1.000  C
  H32      1.0000 0.21780  0.11300  0.58730  Biso   1.000  H
  C42      1.0000 0.31390  0.05954  0.68132  Biso   1.000  C
  H33      1.0000 0.36680  0.08230  0.67480  Biso   1.000  H
  C43      1.0000 0.25220  0.97620  0.74640  Biso   1.000  C
  H34      1.0000 0.26090  0.94040  0.78630  Biso   1.000  H
  C44      1.0000 0.16100  0.99090  0.69560  Biso   1.000  C
  H35      1.0000 0.11000  0.96430  0.70070  Biso   1.000  H
  C45      1.0000 0.08580  0.35772  0.55605  Biso   1.000  C
  C46      1.0000 0.21270  0.28630  0.55260  Biso   1.000  C
  H36      1.0000 0.23690  0.25140  0.52590  Biso   1.000  H
  C47      1.0000 0.27220  0.31424  0.62540  Biso   1.000  C
  H37      1.0000 0.33550  0.29910  0.64730  Biso   1.000  H
  C48      1.0000 0.23600  0.36520  0.66550  Biso   1.000  C
  H38      1.0000 0.27410  0.38420  0.71570  Biso   1.000  H
  C49      1.0000 0.14320  0.38720  0.63040  Biso   1.000  C
  H39      1.0000 0.11820  0.42220  0.65650  Biso   1.000  H
  C50      1.0000 0.98650  0.38087  0.51405  Biso   1.000  C
  H40      1.0000 0.95370  0.35670  0.46540  Biso   1.000  H
  C51      1.0000 0.93840  0.43166  0.53693  Biso   1.000  C
  H41      1.0000 0.96920  0.45570  0.58610  Biso   1.000  H
  C52      1.0000 0.83930  0.45342  0.49058  Biso   1.000  C
  C53      1.0000 0.79220  0.43262  0.40996  Biso   1.000  C
  H42      1.0000 0.82300  0.40350  0.38270  Biso   1.000  H
  C54      1.0000 0.69980  0.45514  0.37057  Biso   1.000  C
  H43      1.0000 0.67000  0.44080  0.31630  Biso   1.000  H
  C55      1.0000 0.69550  0.51703  0.48294  Biso   1.000  C
  H44      1.0000 0.66270  0.54600  0.50860  Biso   1.000  H
  C56      1.0000 0.78850  0.49754  0.52660  Biso   1.000  C
  H45      1.0000 0.81720  0.51390  0.58020  Biso   1.000  H
  C57      1.0000 0.10080  0.12285  0.35719  Biso   1.000  C
  C58      1.0000 0.13590  0.05077  0.33680  Biso   1.000  C
  C59      1.0000 0.07580  0.00639  0.27687  Biso   1.000  C
  H46      1.0000 0.01410  0.02190  0.24710  Biso   1.000  H
  C60      1.0000 0.10750  0.93872  0.26114  Biso   1.000  C
  C61      1.0000 0.03750  0.88910  0.20064  Biso   1.000  C
  C62      1.0000 0.20120  0.91731  0.30189  Biso   1.000  C
  H47      1.0000 0.22300  0.87250  0.29040  Biso   1.000  H
  C63      1.0000 0.26221  0.96323  0.35995  Biso   1.000  C
  C64      1.0000 0.22870  0.02932  0.37912  Biso   1.000  C
  H48      1.0000 0.26860  0.05890  0.42020  Biso   1.000  H
  Cd5      1.0000 0.03994  0.24827  0.89463  Biso   1.000  Cd
  Cd6      1.0000 0.48626  0.50910  0.33158  Biso   1.000  Cd
  O11      1.0000 0.02502  0.35048  0.80816  Biso   1.000  O
  O12      1.0000 0.14762  0.34611  0.92270  Biso   1.000  O
  O13      1.0000 0.95676  0.58709  0.66363  Biso   1.000  O
  O14      1.0000 0.06667  0.67369  0.69061  Biso   1.000  O
  O15      1.0000 0.35502  0.55515  0.90261  Biso   1.000  O
  H49      1.0000 0.37430  0.58390  0.87540  Biso   1.000  H
  N9       1.0000 0.91387  0.30434  0.93194  Biso   1.000  N
  N10      1.0000 0.32891  0.48942  0.24156  Biso   1.000  N
  N11      1.0000 0.12114  0.19304  0.01803  Biso   1.000  N
  N12      1.0000 0.65040  0.00367  0.90547  Biso   1.000  N
  C65      1.0000 0.92320  0.35851  0.98651  Biso   1.000  C
  C66      1.0000 0.82520  0.28520  0.88420  Biso   1.000  C
  H50      1.0000 0.81850  0.24840  0.84580  Biso   1.000  H
  C67      1.0000 0.74410  0.31740  0.88940  Biso   1.000  C
  H51      1.0000 0.68390  0.30200  0.85580  Biso   1.000  H
  C68      1.0000 0.75330  0.37270  0.94520  Biso   1.000  C
  H52      1.0000 0.69960  0.39580  0.94980  Biso   1.000  H
  C69      1.0000 0.84320  0.39300  0.99380  Biso   1.000  C
  H53      1.0000 0.85090  0.43020  0.03200  Biso   1.000  H
  C70      1.0000 0.02060  0.37837  0.03740  Biso   1.000  C
  H54      1.0000 0.06930  0.34740  0.03540  Biso   1.000  H
  C71      1.0000 0.04610  0.43550  0.08540  Biso   1.000  C
  H55      1.0000 0.99750  0.46660  0.08750  Biso   1.000  H
  C72      1.0000 0.14410  0.45483  0.13620  Biso   1.000  C
  C73      1.0000 0.22420  0.42158  0.12810  Biso   1.000  C
  H56      1.0000 0.21780  0.38700  0.08730  Biso   1.000  H
  C74      1.0000 0.31390  0.44046  0.18132  Biso   1.000  C
  H57      1.0000 0.36680  0.41770  0.17480  Biso   1.000  H
  C75      1.0000 0.25220  0.52380  0.24640  Biso   1.000  C
  H58      1.0000 0.26090  0.55960  0.28630  Biso   1.000  H
  C76      1.0000 0.16100  0.50910  0.19560  Biso   1.000  C
  H59      1.0000 0.11000  0.53570  0.20070  Biso   1.000  H
  C77      1.0000 0.08580  0.14228  0.05605  Biso   1.000  C
  C78      1.0000 0.21270  0.21370  0.05260  Biso   1.000  C
  H60      1.0000 0.23690  0.24860  0.02590  Biso   1.000  H
  C79      1.0000 0.27220  0.18576  0.12540  Biso   1.000  C
  H61      1.0000 0.33550  0.20090  0.14730  Biso   1.000  H
  C80      1.0000 0.23600  0.13480  0.16550  Biso   1.000  C
  H62      1.0000 0.27410  0.11580  0.21570  Biso   1.000  H
  C81      1.0000 0.14320  0.11280  0.13040  Biso   1.000  C
  H63      1.0000 0.11820  0.07780  0.15650  Biso   1.000  H
  C82      1.0000 0.98650  0.11913  0.01405  Biso   1.000  C
  H64      1.0000 0.95370  0.14330  0.96540  Biso   1.000  H
  C83      1.0000 0.93840  0.06834  0.03693  Biso   1.000  C
  H65      1.0000 0.96920  0.04430  0.08610  Biso   1.000  H
  C84      1.0000 0.83930  0.04658  0.99058  Biso   1.000  C
  C85      1.0000 0.79220  0.06738  0.90996  Biso   1.000  C
  H66      1.0000 0.82300  0.09650  0.88270  Biso   1.000  H
  C86      1.0000 0.69980  0.04486  0.87057  Biso   1.000  C
  H67      1.0000 0.67000  0.05920  0.81630  Biso   1.000  H
  C87      1.0000 0.69550  0.98297  0.98294  Biso   1.000  C
  H68      1.0000 0.66270  0.95400  0.00860  Biso   1.000  H
  C88      1.0000 0.78850  0.00246  0.02660  Biso   1.000  C
  H69      1.0000 0.81720  0.98610  0.08020  Biso   1.000  H
  C89      1.0000 0.10080  0.37715  0.85719  Biso   1.000  C
  C90      1.0000 0.13590  0.44923  0.83680  Biso   1.000  C
  C91      1.0000 0.07580  0.49361  0.77687  Biso   1.000  C
  H70      1.0000 0.01410  0.47810  0.74710  Biso   1.000  H
  C92      1.0000 0.10750  0.56128  0.76114  Biso   1.000  C
  C93      1.0000 0.03750  0.61090  0.70064  Biso   1.000  C
  C94      1.0000 0.20120  0.58269  0.80189  Biso   1.000  C
  H71      1.0000 0.22300  0.62750  0.79040  Biso   1.000  H
  C95      1.0000 0.26221  0.53677  0.85995  Biso   1.000  C
  C96      1.0000 0.22870  0.47068  0.87912  Biso   1.000  C
  H72      1.0000 0.26860  0.44110  0.92020  Biso   1.000  H
  Cd7      1.0000 0.96006  0.74827  0.60537  Biso   1.000  Cd
  Cd8      1.0000 0.51374  0.00910  0.16842  Biso   1.000  Cd
  O16      1.0000 0.97498  0.85048  0.69184  Biso   1.000  O
  O17      1.0000 0.85238  0.84611  0.57730  Biso   1.000  O
  O18      1.0000 0.04324  0.08709  0.83637  Biso   1.000  O
  O19      1.0000 0.93333  0.17369  0.80939  Biso   1.000  O
  O20      1.0000 0.64498  0.05515  0.59739  Biso   1.000  O
  H73      1.0000 0.62570  0.08390  0.62460  Biso   1.000  H
  N13      1.0000 0.08613  0.80434  0.56806  Biso   1.000  N
  N14      1.0000 0.67109  0.98942  0.25844  Biso   1.000  N
  N15      1.0000 0.87886  0.69304  0.48197  Biso   1.000  N
  N16      1.0000 0.34960  0.50367  0.59453  Biso   1.000  N
  C97      1.0000 0.07680  0.85851  0.51349  Biso   1.000  C
  C98      1.0000 0.17480  0.78520  0.61580  Biso   1.000  C
  H74      1.0000 0.18150  0.74840  0.65420  Biso   1.000  H
  C99      1.0000 0.25590  0.81740  0.61060  Biso   1.000  C
  H75      1.0000 0.31610  0.80200  0.64420  Biso   1.000  H
  C100     1.0000 0.24670  0.87270  0.55480  Biso   1.000  C
  H76      1.0000 0.30040  0.89580  0.55020  Biso   1.000  H
  C101     1.0000 0.15680  0.89300  0.50620  Biso   1.000  C
  H77      1.0000 0.14910  0.93020  0.46800  Biso   1.000  H
  C102     1.0000 0.97940  0.87837  0.46260  Biso   1.000  C
  H78      1.0000 0.93070  0.84740  0.46460  Biso   1.000  H
  C103     1.0000 0.95390  0.93550  0.41460  Biso   1.000  C
  H79      1.0000 0.00250  0.96660  0.41250  Biso   1.000  H
  C104     1.0000 0.85590  0.95483  0.36380  Biso   1.000  C
  C105     1.0000 0.77580  0.92158  0.37190  Biso   1.000  C
  H80      1.0000 0.78220  0.88700  0.41270  Biso   1.000  H
  C106     1.0000 0.68610  0.94046  0.31868  Biso   1.000  C
  H81      1.0000 0.63320  0.91770  0.32520  Biso   1.000  H
  C107     1.0000 0.74780  0.02380  0.25360  Biso   1.000  C
  H82      1.0000 0.73910  0.05960  0.21370  Biso   1.000  H
  C108     1.0000 0.83900  0.00910  0.30440  Biso   1.000  C
  H83      1.0000 0.89000  0.03570  0.29930  Biso   1.000  H
  C109     1.0000 0.91420  0.64228  0.44395  Biso   1.000  C
  C110     1.0000 0.78730  0.71370  0.44740  Biso   1.000  C
  H84      1.0000 0.76310  0.74860  0.47410  Biso   1.000  H
  C111     1.0000 0.72780  0.68576  0.37460  Biso   1.000  C
  H85      1.0000 0.66450  0.70090  0.35270  Biso   1.000  H
  C112     1.0000 0.76400  0.63480  0.33450  Biso   1.000  C
  H86      1.0000 0.72590  0.61580  0.28430  Biso   1.000  H
  C113     1.0000 0.85680  0.61280  0.36960  Biso   1.000  C
  H87      1.0000 0.88180  0.57780  0.34350  Biso   1.000  H
  C114     1.0000 0.01350  0.61913  0.48595  Biso   1.000  C
  H88      1.0000 0.04630  0.64330  0.53460  Biso   1.000  H
  C115     1.0000 0.06160  0.56834  0.46307  Biso   1.000  C
  H89      1.0000 0.03080  0.54430  0.41390  Biso   1.000  H
  C116     1.0000 0.16070  0.54658  0.50942  Biso   1.000  C
  C117     1.0000 0.20780  0.56738  0.59004  Biso   1.000  C
  H90      1.0000 0.17700  0.59650  0.61730  Biso   1.000  H
  C118     1.0000 0.30020  0.54486  0.62943  Biso   1.000  C
  H91      1.0000 0.33000  0.55920  0.68370  Biso   1.000  H
  C119     1.0000 0.30450  0.48297  0.51706  Biso   1.000  C
  H92      1.0000 0.33730  0.45400  0.49140  Biso   1.000  H
  C120     1.0000 0.21150  0.50246  0.47340  Biso   1.000  C
  H93      1.0000 0.18280  0.48610  0.41980  Biso   1.000  H
  C121     1.0000 0.89920  0.87715  0.64281  Biso   1.000  C
  C122     1.0000 0.86410  0.94923  0.66320  Biso   1.000  C
  C123     1.0000 0.92420  0.99361  0.72313  Biso   1.000  C
  H94      1.0000 0.98590  0.97810  0.75290  Biso   1.000  H
  C124     1.0000 0.89250  0.06128  0.73886  Biso   1.000  C
  C125     1.0000 0.96250  0.11090  0.79936  Biso   1.000  C
  C126     1.0000 0.79880  0.08269  0.69811  Biso   1.000  C
  H95      1.0000 0.77700  0.12750  0.70960  Biso   1.000  H
  C127     1.0000 0.73779  0.03677  0.64005  Biso   1.000  C
  C128     1.0000 0.77130  0.97068  0.62088  Biso   1.000  C
  H96      1.0000 0.73140  0.94110  0.57980  Biso   1.000  H
