data_image0
_cell_length_a       10.523
_cell_length_b       11.5968
_cell_length_c       50.242
_cell_angle_alpha    90
_cell_angle_beta     95.697
_cell_angle_gamma    90

_symmetry_space_group_name_H-M    "P 1"
_symmetry_int_tables_number       1

loop_
  _symmetry_equiv_pos_as_xyz
  'x, y, z'

loop_
  _atom_site_label
  _atom_site_occupancy
  _atom_site_fract_x
  _atom_site_fract_y
  _atom_site_fract_z
  _atom_site_thermal_displace_type
  _atom_site_B_iso_or_equiv
  _atom_site_type_symbol
  Ag1      1.0000 0.22595  0.60366  0.63299  Biso   1.000  Ag
  Ag2      1.0000 0.56979  0.17727  0.87993  Biso   1.000  Ag
  C1       1.0000 0.96710  0.35390  0.68040  Biso   1.000  C
  C2       1.0000 0.00950  0.31470  0.70610  Biso   1.000  C
  H1       1.0000 0.08240  0.34570  0.71540  Biso   1.000  H
  C3       1.0000 0.94180  0.23030  0.71720  Biso   1.000  C
  H2       1.0000 0.97170  0.20180  0.73390  Biso   1.000  H
  C4       1.0000 0.83120  0.18590  0.70440  Biso   1.000  C
  C5       1.0000 0.78650  0.22860  0.67900  Biso   1.000  C
  H3       1.0000 0.71040  0.20120  0.67030  Biso   1.000  H
  C6       1.0000 0.85650  0.31160  0.66710  Biso   1.000  C
  H4       1.0000 0.82870  0.33880  0.65010  Biso   1.000  H
  C7       1.0000 0.68920  0.01380  0.70180  Biso   1.000  C
  C8       1.0000 0.58020  0.97100  0.71150  Biso   1.000  C
  H5       1.0000 0.55500  0.99870  0.72750  Biso   1.000  H
  C9       1.0000 0.50940  0.88810  0.69750  Biso   1.000  C
  H6       1.0000 0.43450  0.86120  0.70380  Biso   1.000  H
  C10      1.0000 0.54870  0.84500  0.67460  Biso   1.000  C
  C11      1.0000 0.65540  0.88650  0.66480  Biso   1.000  C
  H7       1.0000 0.67880  0.85900  0.64860  Biso   1.000  H
  C12      1.0000 0.72890  0.96880  0.67860  Biso   1.000  C
  H8       1.0000 0.80450  0.99400  0.67240  Biso   1.000  H
  C13      1.0000 0.75520  0.10640  0.74450  Biso   1.000  C
  C14      1.0000 0.80100  0.02110  0.76150  Biso   1.000  C
  H9       1.0000 0.84190  0.95840  0.75450  Biso   1.000  H
  C15      1.0000 0.68000  0.20590  0.78230  Biso   1.000  C
  H10      1.0000 0.63630  0.26690  0.78920  Biso   1.000  H
  C16      1.0000 0.69700  0.19900  0.75500  Biso   1.000  C
  H11      1.0000 0.66780  0.25900  0.74370  Biso   1.000  H
  C17      1.0000 0.46930  0.75710  0.65930  Biso   1.000  C
  C18      1.0000 0.71630  0.12320  0.82680  Biso   1.000  C
  C19      1.0000 0.73190  0.11720  0.79870  Biso   1.000  C
  C20      1.0000 0.78910  0.02400  0.78840  Biso   1.000  C
  H12      1.0000 0.81950  0.96360  0.79950  Biso   1.000  H
  N1       1.0000 0.76330  0.10090  0.71670  Biso   1.000  N
  N2       1.0000 0.40880  0.68900  0.64960  Biso   1.000  N
  N3       1.0000 0.70200  0.12750  0.84880  Biso   1.000  N
  N4       1.0000 0.09340  0.50190  0.65630  Biso   1.000  N
  C21      1.0000 0.04030  0.43990  0.66710  Biso   1.000  C
  Ag3      1.0000 0.27405  0.10366  0.86701  Biso   1.000  Ag
  Ag4      1.0000 0.93021  0.67727  0.62007  Biso   1.000  Ag
  C22      1.0000 0.53290  0.85390  0.81960  Biso   1.000  C
  C23      1.0000 0.49050  0.81470  0.79390  Biso   1.000  C
  H13      1.0000 0.41760  0.84570  0.78460  Biso   1.000  H
  C24      1.0000 0.55820  0.73030  0.78280  Biso   1.000  C
  H14      1.0000 0.52830  0.70180  0.76610  Biso   1.000  H
  C25      1.0000 0.66880  0.68590  0.79560  Biso   1.000  C
  C26      1.0000 0.71350  0.72860  0.82100  Biso   1.000  C
  H15      1.0000 0.78960  0.70120  0.82970  Biso   1.000  H
  C27      1.0000 0.64350  0.81160  0.83290  Biso   1.000  C
  H16      1.0000 0.67130  0.83880  0.84990  Biso   1.000  H
  C28      1.0000 0.81080  0.51380  0.79820  Biso   1.000  C
  C29      1.0000 0.91980  0.47100  0.78850  Biso   1.000  C
  H17      1.0000 0.94500  0.49870  0.77250  Biso   1.000  H
  C30      1.0000 0.99060  0.38810  0.80250  Biso   1.000  C
  H18      1.0000 0.06550  0.36120  0.79620  Biso   1.000  H
  C31      1.0000 0.95130  0.34500  0.82540  Biso   1.000  C
  C32      1.0000 0.84460  0.38650  0.83520  Biso   1.000  C
  H19      1.0000 0.82120  0.35900  0.85140  Biso   1.000  H
  C33      1.0000 0.77110  0.46880  0.82140  Biso   1.000  C
  H20      1.0000 0.69550  0.49400  0.82760  Biso   1.000  H
  C34      1.0000 0.74480  0.60640  0.75550  Biso   1.000  C
  C35      1.0000 0.69900  0.52110  0.73850  Biso   1.000  C
  H21      1.0000 0.65810  0.45840  0.74550  Biso   1.000  H
  C36      1.0000 0.82000  0.70590  0.71770  Biso   1.000  C
  H22      1.0000 0.86370  0.76690  0.71080  Biso   1.000  H
  C37      1.0000 0.80300  0.69900  0.74500  Biso   1.000  C
  H23      1.0000 0.83220  0.75900  0.75630  Biso   1.000  H
  C38      1.0000 0.03070  0.25710  0.84070  Biso   1.000  C
  C39      1.0000 0.78370  0.62320  0.67320  Biso   1.000  C
  C40      1.0000 0.76810  0.61720  0.70130  Biso   1.000  C
  C41      1.0000 0.71090  0.52400  0.71160  Biso   1.000  C
  H24      1.0000 0.68050  0.46360  0.70050  Biso   1.000  H
  N5       1.0000 0.73670  0.60090  0.78330  Biso   1.000  N
  N6       1.0000 0.09120  0.18900  0.85040  Biso   1.000  N
  N7       1.0000 0.79800  0.62750  0.65120  Biso   1.000  N
  N8       1.0000 0.40660  0.00190  0.84370  Biso   1.000  N
  C42      1.0000 0.45970  0.93990  0.83290  Biso   1.000  C
  C43      1.0000 0.39470  0.11490  0.92750  Biso   1.000  C
  C44      1.0000 0.38730  0.10240  0.95790  Biso   1.000  C
  F1       1.0000 0.37610  0.20100  0.96900  Biso   1.000  F
  F2       1.0000 0.49370  0.06610  0.97090  Biso   1.000  F
  F3       1.0000 0.30720  0.03300  0.96470  Biso   1.000  F
  O1       1.0000 0.30260  0.07420  0.91314  Biso   1.000  O
  O2       1.0000 0.49110  0.15620  0.92140  Biso   1.000  O
  C45      1.0000 0.10530  0.61490  0.57250  Biso   1.000  C
  C46      1.0000 0.11270  0.60240  0.54210  Biso   1.000  C
  F4       1.0000 0.12390  0.70100  0.53100  Biso   1.000  F
  F5       1.0000 0.00630  0.56610  0.52910  Biso   1.000  F
  F6       1.0000 0.19280  0.53300  0.53530  Biso   1.000  F
  O3       1.0000 0.19740  0.57420  0.58686  Biso   1.000  O
  O4       1.0000 0.00890  0.65620  0.57860  Biso   1.000  O
  C47      1.0000 0.60530  0.88510  0.07250  Biso   1.000  C
  C48      1.0000 0.61270  0.89760  0.04210  Biso   1.000  C
  F7       1.0000 0.62390  0.79900  0.03100  Biso   1.000  F
  F8       1.0000 0.50630  0.93390  0.02910  Biso   1.000  F
  F9       1.0000 0.69280  0.96700  0.03530  Biso   1.000  F
  O5       1.0000 0.69740  0.92580  0.08686  Biso   1.000  O
  O6       1.0000 0.50890  0.84380  0.07860  Biso   1.000  O
  C49      1.0000 0.89470  0.38510  0.42750  Biso   1.000  C
  C50      1.0000 0.88730  0.39760  0.45790  Biso   1.000  C
  F10      1.0000 0.87610  0.29900  0.46900  Biso   1.000  F
  F11      1.0000 0.99370  0.43390  0.47090  Biso   1.000  F
  F12      1.0000 0.80720  0.46700  0.46470  Biso   1.000  F
  O7       1.0000 0.80260  0.42580  0.41314  Biso   1.000  O
  O8       1.0000 0.99110  0.34380  0.42140  Biso   1.000  O
  Ag5      1.0000 0.77405  0.39634  0.36701  Biso   1.000  Ag
  Ag6      1.0000 0.43021  0.82273  0.12007  Biso   1.000  Ag
  C51      1.0000 0.03290  0.64610  0.31960  Biso   1.000  C
  C52      1.0000 0.99050  0.68530  0.29390  Biso   1.000  C
  H25      1.0000 0.91760  0.65430  0.28460  Biso   1.000  H
  C53      1.0000 0.05820  0.76970  0.28280  Biso   1.000  C
  H26      1.0000 0.02830  0.79820  0.26610  Biso   1.000  H
  C54      1.0000 0.16880  0.81410  0.29560  Biso   1.000  C
  C55      1.0000 0.21350  0.77140  0.32100  Biso   1.000  C
  H27      1.0000 0.28960  0.79880  0.32970  Biso   1.000  H
  C56      1.0000 0.14350  0.68840  0.33290  Biso   1.000  C
  H28      1.0000 0.17130  0.66120  0.34990  Biso   1.000  H
  C57      1.0000 0.31080  0.98620  0.29820  Biso   1.000  C
  C58      1.0000 0.41980  0.02900  0.28850  Biso   1.000  C
  H29      1.0000 0.44500  0.00130  0.27250  Biso   1.000  H
  C59      1.0000 0.49060  0.11190  0.30250  Biso   1.000  C
  H30      1.0000 0.56550  0.13880  0.29620  Biso   1.000  H
  C60      1.0000 0.45130  0.15500  0.32540  Biso   1.000  C
  C61      1.0000 0.34460  0.11350  0.33520  Biso   1.000  C
  H31      1.0000 0.32120  0.14100  0.35140  Biso   1.000  H
  C62      1.0000 0.27110  0.03120  0.32140  Biso   1.000  C
  H32      1.0000 0.19550  0.00600  0.32760  Biso   1.000  H
  C63      1.0000 0.24480  0.89360  0.25550  Biso   1.000  C
  C64      1.0000 0.19900  0.97890  0.23850  Biso   1.000  C
  H33      1.0000 0.15810  0.04160  0.24550  Biso   1.000  H
  C65      1.0000 0.32000  0.79410  0.21770  Biso   1.000  C
  H34      1.0000 0.36370  0.73310  0.21080  Biso   1.000  H
  C66      1.0000 0.30300  0.80100  0.24500  Biso   1.000  C
  H35      1.0000 0.33220  0.74100  0.25630  Biso   1.000  H
  C67      1.0000 0.53070  0.24290  0.34070  Biso   1.000  C
  C68      1.0000 0.28370  0.87680  0.17320  Biso   1.000  C
  C69      1.0000 0.26810  0.88280  0.20130  Biso   1.000  C
  C70      1.0000 0.21090  0.97600  0.21160  Biso   1.000  C
  H36      1.0000 0.18050  0.03640  0.20050  Biso   1.000  H
  N9       1.0000 0.23670  0.89910  0.28330  Biso   1.000  N
  N10      1.0000 0.59120  0.31100  0.35040  Biso   1.000  N
  N11      1.0000 0.29800  0.87250  0.15120  Biso   1.000  N
  N12      1.0000 0.90660  0.49810  0.34370  Biso   1.000  N
  C71      1.0000 0.95970  0.56010  0.33290  Biso   1.000  C
  Ag7      1.0000 0.72595  0.89634  0.13299  Biso   1.000  Ag
  Ag8      1.0000 0.06979  0.32273  0.37993  Biso   1.000  Ag
  C72      1.0000 0.46710  0.14610  0.18040  Biso   1.000  C
  C73      1.0000 0.50950  0.18530  0.20610  Biso   1.000  C
  H37      1.0000 0.58240  0.15430  0.21540  Biso   1.000  H
  C74      1.0000 0.44180  0.26970  0.21720  Biso   1.000  C
  H38      1.0000 0.47170  0.29820  0.23390  Biso   1.000  H
  C75      1.0000 0.33120  0.31410  0.20440  Biso   1.000  C
  C76      1.0000 0.28650  0.27140  0.17900  Biso   1.000  C
  H39      1.0000 0.21040  0.29880  0.17030  Biso   1.000  H
  C77      1.0000 0.35650  0.18840  0.16710  Biso   1.000  C
  H40      1.0000 0.32870  0.16120  0.15010  Biso   1.000  H
  C78      1.0000 0.18920  0.48620  0.20180  Biso   1.000  C
  C79      1.0000 0.08020  0.52900  0.21150  Biso   1.000  C
  H41      1.0000 0.05500  0.50130  0.22750  Biso   1.000  H
  C80      1.0000 0.00940  0.61190  0.19750  Biso   1.000  C
  H42      1.0000 0.93450  0.63880  0.20380  Biso   1.000  H
  C81      1.0000 0.04870  0.65500  0.17460  Biso   1.000  C
  C82      1.0000 0.15540  0.61350  0.16480  Biso   1.000  C
  H43      1.0000 0.17880  0.64100  0.14860  Biso   1.000  H
  C83      1.0000 0.22890  0.53120  0.17860  Biso   1.000  C
  H44      1.0000 0.30450  0.50600  0.17240  Biso   1.000  H
  C84      1.0000 0.25520  0.39360  0.24450  Biso   1.000  C
  C85      1.0000 0.30100  0.47890  0.26150  Biso   1.000  C
  H45      1.0000 0.34190  0.54160  0.25450  Biso   1.000  H
  C86      1.0000 0.18000  0.29410  0.28230  Biso   1.000  C
  H46      1.0000 0.13630  0.23310  0.28920  Biso   1.000  H
  C87      1.0000 0.19700  0.30100  0.25500  Biso   1.000  C
  H47      1.0000 0.16780  0.24100  0.24370  Biso   1.000  H
  C88      1.0000 0.96930  0.74290  0.15930  Biso   1.000  C
  C89      1.0000 0.21630  0.37680  0.32680  Biso   1.000  C
  C90      1.0000 0.23190  0.38280  0.29870  Biso   1.000  C
  C91      1.0000 0.28910  0.47600  0.28840  Biso   1.000  C
  H48      1.0000 0.31950  0.53640  0.29950  Biso   1.000  H
  N13      1.0000 0.26330  0.39910  0.21670  Biso   1.000  N
  N14      1.0000 0.90880  0.81100  0.14960  Biso   1.000  N
  N15      1.0000 0.20200  0.37250  0.34880  Biso   1.000  N
  N16      1.0000 0.59340  0.99810  0.15630  Biso   1.000  N
  C92      1.0000 0.54030  0.06010  0.16710  Biso   1.000  C
