data_image0
_cell_length_a       23.2955
_cell_length_b       23.2955
_cell_length_c       12.7489
_cell_angle_alpha    90
_cell_angle_beta     90
_cell_angle_gamma    120

_symmetry_space_group_name_H-M    "P 1"
_symmetry_int_tables_number       1

loop_
  _symmetry_equiv_pos_as_xyz
  'x, y, z'

loop_
  _atom_site_label
  _atom_site_occupancy
  _atom_site_fract_x
  _atom_site_fract_y
  _atom_site_fract_z
  _atom_site_thermal_displace_type
  _atom_site_B_iso_or_equiv
  _atom_site_type_symbol
  W1       1.0000 0.59047  0.89692  0.96630  Biso   1.000  W
  Cu1      1.0000 0.54079  0.96368  0.05928  Biso   1.000  Cu
  Cu2      1.0000 0.55036  0.95788  0.83813  Biso   1.000  Cu
  S1       1.0000 0.63104  0.96360  0.10630  Biso   1.000  S
  S2       1.0000 0.48398  0.87943  0.94817  Biso   1.000  S
  S3       1.0000 0.64738  0.96353  0.83380  Biso   1.000  S
  B1       1.0000 0.60630  0.76110  0.99990  Biso   1.000  B
  H1       1.0000 0.61320  0.71620  0.00900  Biso   1.000  H
  N1       1.0000 0.50240  0.99360  0.16370  Biso   1.000  N
  N2       1.0000 0.56000  0.75980  0.08410  Biso   1.000  N
  N3       1.0000 0.54350  0.80890  0.08490  Biso   1.000  N
  N4       1.0000 0.67450  0.82350  0.01170  Biso   1.000  N
  N5       1.0000 0.67920  0.88360  0.99440  Biso   1.000  N
  N6       1.0000 0.57720  0.75910  0.89220  Biso   1.000  N
  N7       1.0000 0.56130  0.80750  0.86310  Biso   1.000  N
  C1       1.0000 0.48240  0.01130  0.22730  Biso   1.000  C
  C2       1.0000 0.53440  0.65440  0.17470  Biso   1.000  C
  H2       1.0000 0.51450  0.62420  0.11520  Biso   1.000  H
  H3       1.0000 0.51130  0.63210  0.23940  Biso   1.000  H
  H4       1.0000 0.58130  0.66750  0.18040  Biso   1.000  H
  C3       1.0000 0.52820  0.71530  0.15790  Biso   1.000  C
  C4       1.0000 0.48760  0.73350  0.20880  Biso   1.000  C
  H5       1.0000 0.45780  0.71060  0.26460  Biso   1.000  H
  C5       1.0000 0.49900  0.79150  0.16230  Biso   1.000  C
  C6       1.0000 0.46620  0.82950  0.19490  Biso   1.000  C
  H6       1.0000 0.50000  0.87520  0.21150  Biso   1.000  H
  H7       1.0000 0.43880  0.80870  0.25690  Biso   1.000  H
  H8       1.0000 0.43820  0.82960  0.13750  Biso   1.000  H
  C7       1.0000 0.74430  0.77510  0.06800  Biso   1.000  C
  H9       1.0000 0.71590  0.75060  0.12780  Biso   1.000  H
  H10      1.0000 0.79080  0.79130  0.08670  Biso   1.000  H
  H11      1.0000 0.73230  0.74570  0.00730  Biso   1.000  H
  C8       1.0000 0.73500  0.83220  0.04270  Biso   1.000  C
  C9       1.0000 0.77880  0.89860  0.04180  Biso   1.000  C
  H12      1.0000 0.82410  0.91990  0.06210  Biso   1.000  H
  C10      1.0000 0.74470  0.92860  0.00590  Biso   1.000  C
  C11      1.0000 0.77540  0.00300  0.98700  Biso   1.000  C
  H13      1.0000 0.82150  0.02590  0.01130  Biso   1.000  H
  H14      1.0000 0.75020  0.01950  0.02560  Biso   1.000  H
  H15      1.0000 0.77420  0.01120  0.91180  Biso   1.000  H
  C12      1.0000 0.56540  0.65340  0.82930  Biso   1.000  C
  H16      1.0000 0.61250  0.66680  0.82840  Biso   1.000  H
  H17      1.0000 0.54290  0.62340  0.77040  Biso   1.000  H
  H18      1.0000 0.54550  0.63070  0.89540  Biso   1.000  H
  C13      1.0000 0.55830  0.71170  0.81970  Biso   1.000  C
  C14      1.0000 0.53020  0.72920  0.74140  Biso   1.000  C
  H19      1.0000 0.51060  0.70440  0.67940  Biso   1.000  H
  C15      1.0000 0.53530  0.79060  0.76830  Biso   1.000  C
  C16      1.0000 0.51030  0.82610  0.70620  Biso   1.000  C
  H20      1.0000 0.47270  0.82500  0.74260  Biso   1.000  H
  H21      1.0000 0.49580  0.80490  0.63740  Biso   1.000  H
  H22      1.0000 0.54550  0.87220  0.69690  Biso   1.000  H
  W2       1.0000 0.40953  0.10308  0.46630  Biso   1.000  W
  Cu3      1.0000 0.45921  0.03632  0.55928  Biso   1.000  Cu
  Cu4      1.0000 0.44964  0.04212  0.33813  Biso   1.000  Cu
  S4       1.0000 0.36896  0.03640  0.60630  Biso   1.000  S
  S5       1.0000 0.51602  0.12057  0.44817  Biso   1.000  S
  S6       1.0000 0.35262  0.03647  0.33380  Biso   1.000  S
  B2       1.0000 0.39370  0.23890  0.49990  Biso   1.000  B
  H23      1.0000 0.38680  0.28380  0.50900  Biso   1.000  H
  N8       1.0000 0.49760  0.00640  0.66370  Biso   1.000  N
  N9       1.0000 0.44000  0.24020  0.58410  Biso   1.000  N
  N10      1.0000 0.45650  0.19110  0.58490  Biso   1.000  N
  N11      1.0000 0.32550  0.17650  0.51170  Biso   1.000  N
  N12      1.0000 0.32080  0.11640  0.49440  Biso   1.000  N
  N13      1.0000 0.42280  0.24090  0.39220  Biso   1.000  N
  N14      1.0000 0.43870  0.19250  0.36310  Biso   1.000  N
  C17      1.0000 0.51760  0.98870  0.72730  Biso   1.000  C
  C18      1.0000 0.46560  0.34560  0.67470  Biso   1.000  C
  H24      1.0000 0.48550  0.37580  0.61520  Biso   1.000  H
  H25      1.0000 0.48870  0.36790  0.73940  Biso   1.000  H
  H26      1.0000 0.41870  0.33250  0.68040  Biso   1.000  H
  C19      1.0000 0.47180  0.28470  0.65790  Biso   1.000  C
  C20      1.0000 0.51240  0.26650  0.70880  Biso   1.000  C
  H27      1.0000 0.54220  0.28940  0.76460  Biso   1.000  H
  C21      1.0000 0.50100  0.20850  0.66230  Biso   1.000  C
  C22      1.0000 0.53380  0.17050  0.69490  Biso   1.000  C
  H28      1.0000 0.50000  0.12480  0.71150  Biso   1.000  H
  H29      1.0000 0.56120  0.19130  0.75690  Biso   1.000  H
  H30      1.0000 0.56180  0.17040  0.63750  Biso   1.000  H
  C23      1.0000 0.25570  0.22490  0.56800  Biso   1.000  C
  H31      1.0000 0.28410  0.24940  0.62780  Biso   1.000  H
  H32      1.0000 0.20920  0.20870  0.58670  Biso   1.000  H
  H33      1.0000 0.26770  0.25430  0.50730  Biso   1.000  H
  C24      1.0000 0.26500  0.16780  0.54270  Biso   1.000  C
  C25      1.0000 0.22120  0.10140  0.54180  Biso   1.000  C
  H34      1.0000 0.17590  0.08010  0.56210  Biso   1.000  H
  C26      1.0000 0.25530  0.07140  0.50590  Biso   1.000  C
  C27      1.0000 0.22460  0.99700  0.48700  Biso   1.000  C
  H35      1.0000 0.17850  0.97410  0.51130  Biso   1.000  H
  H36      1.0000 0.24980  0.98050  0.52560  Biso   1.000  H
  H37      1.0000 0.22580  0.98880  0.41180  Biso   1.000  H
  C28      1.0000 0.43460  0.34660  0.32930  Biso   1.000  C
  H38      1.0000 0.38750  0.33320  0.32840  Biso   1.000  H
  H39      1.0000 0.45710  0.37660  0.27040  Biso   1.000  H
  H40      1.0000 0.45450  0.36930  0.39540  Biso   1.000  H
  C29      1.0000 0.44170  0.28830  0.31970  Biso   1.000  C
  C30      1.0000 0.46980  0.27080  0.24140  Biso   1.000  C
  H41      1.0000 0.48940  0.29560  0.17940  Biso   1.000  H
  C31      1.0000 0.46470  0.20940  0.26830  Biso   1.000  C
  C32      1.0000 0.48970  0.17390  0.20620  Biso   1.000  C
  H42      1.0000 0.52730  0.17500  0.24260  Biso   1.000  H
  H43      1.0000 0.50420  0.19510  0.13740  Biso   1.000  H
  H44      1.0000 0.45450  0.12780  0.19690  Biso   1.000  H
  W3       1.0000 0.10308  0.69355  0.96630  Biso   1.000  W
  Cu5      1.0000 0.03632  0.57711  0.05928  Biso   1.000  Cu
  Cu6      1.0000 0.04212  0.59248  0.83813  Biso   1.000  Cu
  S7       1.0000 0.03640  0.66744  0.10630  Biso   1.000  S
  S8       1.0000 0.12057  0.60455  0.94817  Biso   1.000  S
  S9       1.0000 0.03647  0.68385  0.83380  Biso   1.000  S
  B3       1.0000 0.23890  0.84520  0.99990  Biso   1.000  B
  H45      1.0000 0.28380  0.89700  0.00900  Biso   1.000  H
  N15      1.0000 0.00640  0.50880  0.16370  Biso   1.000  N
  N16      1.0000 0.24020  0.80020  0.08410  Biso   1.000  N
  N17      1.0000 0.19110  0.73460  0.08490  Biso   1.000  N
  N18      1.0000 0.17650  0.85100  0.01170  Biso   1.000  N
  N19      1.0000 0.11640  0.79560  0.99440  Biso   1.000  N
  N20      1.0000 0.24090  0.81810  0.89220  Biso   1.000  N
  N21      1.0000 0.19250  0.75380  0.86310  Biso   1.000  N
  C33      1.0000 0.98870  0.47110  0.22730  Biso   1.000  C
  C34      1.0000 0.34560  0.88000  0.17470  Biso   1.000  C
  H46      1.0000 0.37580  0.89030  0.11520  Biso   1.000  H
  H47      1.0000 0.36790  0.87920  0.23940  Biso   1.000  H
  H48      1.0000 0.33250  0.91380  0.18040  Biso   1.000  H
  C35      1.0000 0.28470  0.81290  0.15790  Biso   1.000  C
  C36      1.0000 0.26650  0.75410  0.20880  Biso   1.000  C
  H49      1.0000 0.28940  0.74720  0.26460  Biso   1.000  H
  C37      1.0000 0.20850  0.70750  0.16230  Biso   1.000  C
  C38      1.0000 0.17050  0.63670  0.19490  Biso   1.000  C
  H50      1.0000 0.12480  0.62480  0.21150  Biso   1.000  H
  H51      1.0000 0.19130  0.63010  0.25690  Biso   1.000  H
  H52      1.0000 0.17040  0.60860  0.13750  Biso   1.000  H
  C39      1.0000 0.22490  0.96920  0.06800  Biso   1.000  C
  H53      1.0000 0.24940  0.96530  0.12780  Biso   1.000  H
  H54      1.0000 0.20870  0.99950  0.08670  Biso   1.000  H
  H55      1.0000 0.25430  0.98660  0.00730  Biso   1.000  H
  C40      1.0000 0.16780  0.90280  0.04270  Biso   1.000  C
  C41      1.0000 0.10140  0.88020  0.04180  Biso   1.000  C
  H56      1.0000 0.08010  0.90420  0.06210  Biso   1.000  H
  C42      1.0000 0.07140  0.81610  0.00590  Biso   1.000  C
  C43      1.0000 0.99700  0.77240  0.98700  Biso   1.000  C
  H57      1.0000 0.97410  0.79560  0.01130  Biso   1.000  H
  H58      1.0000 0.98050  0.73070  0.02560  Biso   1.000  H
  H59      1.0000 0.98880  0.76300  0.91180  Biso   1.000  H
  C44      1.0000 0.34660  0.91200  0.82930  Biso   1.000  C
  H60      1.0000 0.33320  0.94570  0.82840  Biso   1.000  H
  H61      1.0000 0.37660  0.91950  0.77040  Biso   1.000  H
  H62      1.0000 0.36930  0.91480  0.89540  Biso   1.000  H
  C45      1.0000 0.28830  0.84660  0.81970  Biso   1.000  C
  C46      1.0000 0.27080  0.80100  0.74140  Biso   1.000  C
  H63      1.0000 0.29560  0.80620  0.67940  Biso   1.000  H
  C47      1.0000 0.20940  0.74470  0.76830  Biso   1.000  C
  C48      1.0000 0.17390  0.68420  0.70620  Biso   1.000  C
  H64      1.0000 0.17500  0.64770  0.74260  Biso   1.000  H
  H65      1.0000 0.19510  0.69090  0.63740  Biso   1.000  H
  H66      1.0000 0.12780  0.67330  0.69690  Biso   1.000  H
  W4       1.0000 0.89692  0.30645  0.46630  Biso   1.000  W
  Cu7      1.0000 0.96368  0.42289  0.55928  Biso   1.000  Cu
  Cu8      1.0000 0.95788  0.40752  0.33813  Biso   1.000  Cu
  S10      1.0000 0.96360  0.33256  0.60630  Biso   1.000  S
  S11      1.0000 0.87943  0.39545  0.44817  Biso   1.000  S
  S12      1.0000 0.96353  0.31615  0.33380  Biso   1.000  S
  B4       1.0000 0.76110  0.15480  0.49990  Biso   1.000  B
  H67      1.0000 0.71620  0.10300  0.50900  Biso   1.000  H
  N22      1.0000 0.99360  0.49120  0.66370  Biso   1.000  N
  N23      1.0000 0.75980  0.19980  0.58410  Biso   1.000  N
  N24      1.0000 0.80890  0.26540  0.58490  Biso   1.000  N
  N25      1.0000 0.82350  0.14900  0.51170  Biso   1.000  N
  N26      1.0000 0.88360  0.20440  0.49440  Biso   1.000  N
  N27      1.0000 0.75910  0.18190  0.39220  Biso   1.000  N
  N28      1.0000 0.80750  0.24620  0.36310  Biso   1.000  N
  C49      1.0000 0.01130  0.52890  0.72730  Biso   1.000  C
  C50      1.0000 0.65440  0.12000  0.67470  Biso   1.000  C
  H68      1.0000 0.62420  0.10970  0.61520  Biso   1.000  H
  H69      1.0000 0.63210  0.12080  0.73940  Biso   1.000  H
  H70      1.0000 0.66750  0.08620  0.68040  Biso   1.000  H
  C51      1.0000 0.71530  0.18710  0.65790  Biso   1.000  C
  C52      1.0000 0.73350  0.24590  0.70880  Biso   1.000  C
  H71      1.0000 0.71060  0.25280  0.76460  Biso   1.000  H
  C53      1.0000 0.79150  0.29250  0.66230  Biso   1.000  C
  C54      1.0000 0.82950  0.36330  0.69490  Biso   1.000  C
  H72      1.0000 0.87520  0.37520  0.71150  Biso   1.000  H
  H73      1.0000 0.80870  0.36990  0.75690  Biso   1.000  H
  H74      1.0000 0.82960  0.39140  0.63750  Biso   1.000  H
  C55      1.0000 0.77510  0.03080  0.56800  Biso   1.000  C
  H75      1.0000 0.75060  0.03470  0.62780  Biso   1.000  H
  H76      1.0000 0.79130  0.00050  0.58670  Biso   1.000  H
  H77      1.0000 0.74570  0.01340  0.50730  Biso   1.000  H
  C56      1.0000 0.83220  0.09720  0.54270  Biso   1.000  C
  C57      1.0000 0.89860  0.11980  0.54180  Biso   1.000  C
  H78      1.0000 0.91990  0.09580  0.56210  Biso   1.000  H
  C58      1.0000 0.92860  0.18390  0.50590  Biso   1.000  C
  C59      1.0000 0.00300  0.22760  0.48700  Biso   1.000  C
  H79      1.0000 0.02590  0.20440  0.51130  Biso   1.000  H
  H80      1.0000 0.01950  0.26930  0.52560  Biso   1.000  H
  H81      1.0000 0.01120  0.23700  0.41180  Biso   1.000  H
  C60      1.0000 0.65340  0.08800  0.32930  Biso   1.000  C
  H82      1.0000 0.66680  0.05430  0.32840  Biso   1.000  H
  H83      1.0000 0.62340  0.08050  0.27040  Biso   1.000  H
  H84      1.0000 0.63070  0.08520  0.39540  Biso   1.000  H
  C61      1.0000 0.71170  0.15340  0.31970  Biso   1.000  C
  C62      1.0000 0.72920  0.19900  0.24140  Biso   1.000  C
  H85      1.0000 0.70440  0.19380  0.17940  Biso   1.000  H
  C63      1.0000 0.79060  0.25530  0.26830  Biso   1.000  C
  C64      1.0000 0.82610  0.31580  0.20620  Biso   1.000  C
  H86      1.0000 0.82500  0.35230  0.24260  Biso   1.000  H
  H87      1.0000 0.80490  0.30910  0.13740  Biso   1.000  H
  H88      1.0000 0.87220  0.32670  0.19690  Biso   1.000  H
  W5       1.0000 0.30645  0.40953  0.96630  Biso   1.000  W
  Cu9      1.0000 0.42289  0.45921  0.05928  Biso   1.000  Cu
  Cu10     1.0000 0.40752  0.44964  0.83813  Biso   1.000  Cu
  S13      1.0000 0.33256  0.36896  0.10630  Biso   1.000  S
  S14      1.0000 0.39545  0.51602  0.94817  Biso   1.000  S
  S15      1.0000 0.31615  0.35262  0.83380  Biso   1.000  S
  B5       1.0000 0.15480  0.39370  0.99990  Biso   1.000  B
  H89      1.0000 0.10300  0.38680  0.00900  Biso   1.000  H
  N29      1.0000 0.49120  0.49760  0.16370  Biso   1.000  N
  N30      1.0000 0.19980  0.44000  0.08410  Biso   1.000  N
  N31      1.0000 0.26540  0.45650  0.08490  Biso   1.000  N
  N32      1.0000 0.14900  0.32550  0.01170  Biso   1.000  N
  N33      1.0000 0.20440  0.32080  0.99440  Biso   1.000  N
  N34      1.0000 0.18190  0.42280  0.89220  Biso   1.000  N
  N35      1.0000 0.24620  0.43870  0.86310  Biso   1.000  N
  C65      1.0000 0.52890  0.51760  0.22730  Biso   1.000  C
  C66      1.0000 0.12000  0.46560  0.17470  Biso   1.000  C
  H90      1.0000 0.10970  0.48550  0.11520  Biso   1.000  H
  H91      1.0000 0.12080  0.48870  0.23940  Biso   1.000  H
  H92      1.0000 0.08620  0.41870  0.18040  Biso   1.000  H
  C67      1.0000 0.18710  0.47180  0.15790  Biso   1.000  C
  C68      1.0000 0.24590  0.51240  0.20880  Biso   1.000  C
  H93      1.0000 0.25280  0.54220  0.26460  Biso   1.000  H
  C69      1.0000 0.29250  0.50100  0.16230  Biso   1.000  C
  C70      1.0000 0.36330  0.53380  0.19490  Biso   1.000  C
  H94      1.0000 0.37520  0.50000  0.21150  Biso   1.000  H
  H95      1.0000 0.36990  0.56120  0.25690  Biso   1.000  H
  H96      1.0000 0.39140  0.56180  0.13750  Biso   1.000  H
  C71      1.0000 0.03080  0.25570  0.06800  Biso   1.000  C
  H97      1.0000 0.03470  0.28410  0.12780  Biso   1.000  H
  H98      1.0000 0.00050  0.20920  0.08670  Biso   1.000  H
  H99      1.0000 0.01340  0.26770  0.00730  Biso   1.000  H
  C72      1.0000 0.09720  0.26500  0.04270  Biso   1.000  C
  C73      1.0000 0.11980  0.22120  0.04180  Biso   1.000  C
  H100     1.0000 0.09580  0.17590  0.06210  Biso   1.000  H
  C74      1.0000 0.18390  0.25530  0.00590  Biso   1.000  C
  C75      1.0000 0.22760  0.22460  0.98700  Biso   1.000  C
  H101     1.0000 0.20440  0.17850  0.01130  Biso   1.000  H
  H102     1.0000 0.26930  0.24980  0.02560  Biso   1.000  H
  H103     1.0000 0.23700  0.22580  0.91180  Biso   1.000  H
  C76      1.0000 0.08800  0.43460  0.82930  Biso   1.000  C
  H104     1.0000 0.05430  0.38750  0.82840  Biso   1.000  H
  H105     1.0000 0.08050  0.45710  0.77040  Biso   1.000  H
  H106     1.0000 0.08520  0.45450  0.89540  Biso   1.000  H
  C77      1.0000 0.15340  0.44170  0.81970  Biso   1.000  C
  C78      1.0000 0.19900  0.46980  0.74140  Biso   1.000  C
  H107     1.0000 0.19380  0.48940  0.67940  Biso   1.000  H
  C79      1.0000 0.25530  0.46470  0.76830  Biso   1.000  C
  C80      1.0000 0.31580  0.48970  0.70620  Biso   1.000  C
  H108     1.0000 0.35230  0.52730  0.74260  Biso   1.000  H
  H109     1.0000 0.30910  0.50420  0.63740  Biso   1.000  H
  H110     1.0000 0.32670  0.45450  0.69690  Biso   1.000  H
  W6       1.0000 0.69355  0.59047  0.46630  Biso   1.000  W
  Cu11     1.0000 0.57711  0.54079  0.55928  Biso   1.000  Cu
  Cu12     1.0000 0.59248  0.55036  0.33813  Biso   1.000  Cu
  S16      1.0000 0.66744  0.63104  0.60630  Biso   1.000  S
  S17      1.0000 0.60455  0.48398  0.44817  Biso   1.000  S
  S18      1.0000 0.68385  0.64738  0.33380  Biso   1.000  S
  B6       1.0000 0.84520  0.60630  0.49990  Biso   1.000  B
  H111     1.0000 0.89700  0.61320  0.50900  Biso   1.000  H
  N36      1.0000 0.50880  0.50240  0.66370  Biso   1.000  N
  N37      1.0000 0.80020  0.56000  0.58410  Biso   1.000  N
  N38      1.0000 0.73460  0.54350  0.58490  Biso   1.000  N
  N39      1.0000 0.85100  0.67450  0.51170  Biso   1.000  N
  N40      1.0000 0.79560  0.67920  0.49440  Biso   1.000  N
  N41      1.0000 0.81810  0.57720  0.39220  Biso   1.000  N
  N42      1.0000 0.75380  0.56130  0.36310  Biso   1.000  N
  C81      1.0000 0.47110  0.48240  0.72730  Biso   1.000  C
  C82      1.0000 0.88000  0.53440  0.67470  Biso   1.000  C
  H112     1.0000 0.89030  0.51450  0.61520  Biso   1.000  H
  H113     1.0000 0.87920  0.51130  0.73940  Biso   1.000  H
  H114     1.0000 0.91380  0.58130  0.68040  Biso   1.000  H
  C83      1.0000 0.81290  0.52820  0.65790  Biso   1.000  C
  C84      1.0000 0.75410  0.48760  0.70880  Biso   1.000  C
  H115     1.0000 0.74720  0.45780  0.76460  Biso   1.000  H
  C85      1.0000 0.70750  0.49900  0.66230  Biso   1.000  C
  C86      1.0000 0.63670  0.46620  0.69490  Biso   1.000  C
  H116     1.0000 0.62480  0.50000  0.71150  Biso   1.000  H
  H117     1.0000 0.63010  0.43880  0.75690  Biso   1.000  H
  H118     1.0000 0.60860  0.43820  0.63750  Biso   1.000  H
  C87      1.0000 0.96920  0.74430  0.56800  Biso   1.000  C
  H119     1.0000 0.96530  0.71590  0.62780  Biso   1.000  H
  H120     1.0000 0.99950  0.79080  0.58670  Biso   1.000  H
  H121     1.0000 0.98660  0.73230  0.50730  Biso   1.000  H
  C88      1.0000 0.90280  0.73500  0.54270  Biso   1.000  C
  C89      1.0000 0.88020  0.77880  0.54180  Biso   1.000  C
  H122     1.0000 0.90420  0.82410  0.56210  Biso   1.000  H
  C90      1.0000 0.81610  0.74470  0.50590  Biso   1.000  C
  C91      1.0000 0.77240  0.77540  0.48700  Biso   1.000  C
  H123     1.0000 0.79560  0.82150  0.51130  Biso   1.000  H
  H124     1.0000 0.73070  0.75020  0.52560  Biso   1.000  H
  H125     1.0000 0.76300  0.77420  0.41180  Biso   1.000  H
  C92      1.0000 0.91200  0.56540  0.32930  Biso   1.000  C
  H126     1.0000 0.94570  0.61250  0.32840  Biso   1.000  H
  H127     1.0000 0.91950  0.54290  0.27040  Biso   1.000  H
  H128     1.0000 0.91480  0.54550  0.39540  Biso   1.000  H
  C93      1.0000 0.84660  0.55830  0.31970  Biso   1.000  C
  C94      1.0000 0.80100  0.53020  0.24140  Biso   1.000  C
  H129     1.0000 0.80620  0.51060  0.17940  Biso   1.000  H
  C95      1.0000 0.74470  0.53530  0.26830  Biso   1.000  C
  C96      1.0000 0.68420  0.51030  0.20620  Biso   1.000  C
  H130     1.0000 0.64770  0.47270  0.24260  Biso   1.000  H
  H131     1.0000 0.69090  0.49580  0.13740  Biso   1.000  H
  H132     1.0000 0.67330  0.54550  0.19690  Biso   1.000  H
