data_image0
_cell_length_a       14.9458
_cell_length_b       26.4662
_cell_length_c       15.3728
_cell_angle_alpha    90
_cell_angle_beta     110.01
_cell_angle_gamma    90

_symmetry_space_group_name_H-M    "P 1"
_symmetry_int_tables_number       1

loop_
  _symmetry_equiv_pos_as_xyz
  'x, y, z'

loop_
  _atom_site_label
  _atom_site_occupancy
  _atom_site_fract_x
  _atom_site_fract_y
  _atom_site_fract_z
  _atom_site_thermal_displace_type
  _atom_site_B_iso_or_equiv
  _atom_site_type_symbol
  Cd1      1.0000 0.02120  0.09597  0.51807  Biso   1.000  Cd
  C1       1.0000 0.09560  0.28046  0.51190  Biso   1.000  C
  H1       1.0000 0.09120  0.30070  0.55960  Biso   1.000  H
  C2       1.0000 0.07550  0.23062  0.51530  Biso   1.000  C
  C3       1.0000 0.08460  0.19787  0.44350  Biso   1.000  C
  C4       1.0000 0.10900  0.22348  0.37150  Biso   1.000  C
  C5       1.0000 0.12330  0.27490  0.37080  Biso   1.000  C
  C6       1.0000 0.04780  0.21354  0.59570  Biso   1.000  C
  C7       1.0000 0.14780  0.35768  0.45190  Biso   1.000  C
  H2       1.0000 0.19900  0.36270  0.42750  Biso   1.000  H
  H3       1.0000 0.17080  0.36780  0.51650  Biso   1.000  H
  C8       1.0000 0.06550  0.39000  0.39990  Biso   1.000  C
  H4       1.0000 0.08510  0.42470  0.40520  Biso   1.000  H
  H5       1.0000 0.01540  0.38580  0.42510  Biso   1.000  H
  H6       1.0000 0.04290  0.38030  0.33590  Biso   1.000  H
  N1       1.0000 0.14040  0.29956  0.30187  Biso   1.000  N
  C9       1.0000 0.14460  0.27028  0.23180  Biso   1.000  C
  N2       1.0000 0.13770  0.21910  0.22777  Biso   1.000  N
  C10      1.0000 0.11930  0.19713  0.29600  Biso   1.000  C
  H7       1.0000 0.11260  0.16220  0.29460  Biso   1.000  H
  C11      1.0000 0.19500  0.26506  0.09800  Biso   1.000  C
  H8       1.0000 0.17600  0.23460  0.09340  Biso   1.000  H
  H9       1.0000 0.17730  0.27800  0.04410  Biso   1.000  H
  C12      1.0000 0.30180  0.26697  0.14090  Biso   1.000  C
  H10      1.0000 0.32100  0.24890  0.19930  Biso   1.000  H
  H11      1.0000 0.32940  0.24970  0.10060  Biso   1.000  H
  C13      1.0000 0.28740  0.35177  0.20110  Biso   1.000  C
  H12      1.0000 0.30410  0.38670  0.19480  Biso   1.000  H
  H13      1.0000 0.30770  0.34410  0.26670  Biso   1.000  H
  C14      1.0000 0.18130  0.34652  0.16100  Biso   1.000  C
  H14      1.0000 0.15220  0.36510  0.19880  Biso   1.000  H
  H15      1.0000 0.15850  0.36070  0.09910  Biso   1.000  H
  O1       1.0000 0.07352  0.15106  0.43838  Biso   1.000  O
  O2       1.0000 0.04144  0.16693  0.61028  Biso   1.000  O
  O3       1.0000 0.03350  0.24577  0.64850  Biso   1.000  O
  N3       1.0000 0.12150  0.30341  0.44529  Biso   1.000  N
  N4       1.0000 0.15408  0.29335  0.15735  Biso   1.000  N
  N5       1.0000 0.34056  0.31879  0.15769  Biso   1.000  N
  H16      1.0000 0.33620  0.33250  0.10210  Biso   1.000  H
  Cd2      1.0000 0.97880  0.09597  0.98193  Biso   1.000  Cd
  C15      1.0000 0.90440  0.28046  0.98810  Biso   1.000  C
  H17      1.0000 0.90880  0.30070  0.94040  Biso   1.000  H
  C16      1.0000 0.92450  0.23062  0.98470  Biso   1.000  C
  C17      1.0000 0.91540  0.19787  0.05650  Biso   1.000  C
  C18      1.0000 0.89100  0.22348  0.12850  Biso   1.000  C
  C19      1.0000 0.87670  0.27490  0.12920  Biso   1.000  C
  C20      1.0000 0.95220  0.21354  0.90430  Biso   1.000  C
  C21      1.0000 0.85220  0.35768  0.04810  Biso   1.000  C
  H18      1.0000 0.80100  0.36270  0.07250  Biso   1.000  H
  H19      1.0000 0.82920  0.36780  0.98350  Biso   1.000  H
  C22      1.0000 0.93450  0.39000  0.10010  Biso   1.000  C
  H20      1.0000 0.91490  0.42470  0.09480  Biso   1.000  H
  H21      1.0000 0.98460  0.38580  0.07490  Biso   1.000  H
  H22      1.0000 0.95710  0.38030  0.16410  Biso   1.000  H
  N6       1.0000 0.85960  0.29956  0.19813  Biso   1.000  N
  C23      1.0000 0.85540  0.27028  0.26820  Biso   1.000  C
  N7       1.0000 0.86230  0.21910  0.27223  Biso   1.000  N
  C24      1.0000 0.88070  0.19713  0.20400  Biso   1.000  C
  H23      1.0000 0.88740  0.16220  0.20540  Biso   1.000  H
  C25      1.0000 0.80500  0.26506  0.40200  Biso   1.000  C
  H24      1.0000 0.82400  0.23460  0.40660  Biso   1.000  H
  H25      1.0000 0.82270  0.27800  0.45590  Biso   1.000  H
  C26      1.0000 0.69820  0.26697  0.35910  Biso   1.000  C
  H26      1.0000 0.67900  0.24890  0.30070  Biso   1.000  H
  H27      1.0000 0.67060  0.24970  0.39940  Biso   1.000  H
  C27      1.0000 0.71260  0.35177  0.29890  Biso   1.000  C
  H28      1.0000 0.69590  0.38670  0.30520  Biso   1.000  H
  H29      1.0000 0.69230  0.34410  0.23330  Biso   1.000  H
  C28      1.0000 0.81870  0.34652  0.33900  Biso   1.000  C
  H30      1.0000 0.84780  0.36510  0.30120  Biso   1.000  H
  H31      1.0000 0.84150  0.36070  0.40090  Biso   1.000  H
  O4       1.0000 0.92648  0.15106  0.06162  Biso   1.000  O
  O5       1.0000 0.95856  0.16693  0.88972  Biso   1.000  O
  O6       1.0000 0.96650  0.24577  0.85150  Biso   1.000  O
  N8       1.0000 0.87850  0.30341  0.05471  Biso   1.000  N
  N9       1.0000 0.84592  0.29335  0.34265  Biso   1.000  N
  N10      1.0000 0.65944  0.31879  0.34231  Biso   1.000  N
  H32      1.0000 0.66380  0.33250  0.39790  Biso   1.000  H
  Cd3      1.0000 0.50000  0.31720  0.25000  Biso   1.000  Cd
  Cd4      1.0000 0.97880  0.90403  0.48193  Biso   1.000  Cd
  C29      1.0000 0.90440  0.71954  0.48810  Biso   1.000  C
  H33      1.0000 0.90880  0.69930  0.44040  Biso   1.000  H
  C30      1.0000 0.92450  0.76938  0.48470  Biso   1.000  C
  C31      1.0000 0.91540  0.80213  0.55650  Biso   1.000  C
  C32      1.0000 0.89100  0.77652  0.62850  Biso   1.000  C
  C33      1.0000 0.87670  0.72510  0.62920  Biso   1.000  C
  C34      1.0000 0.95220  0.78646  0.40430  Biso   1.000  C
  C35      1.0000 0.85220  0.64232  0.54810  Biso   1.000  C
  H34      1.0000 0.80100  0.63730  0.57250  Biso   1.000  H
  H35      1.0000 0.82920  0.63220  0.48350  Biso   1.000  H
  C36      1.0000 0.93450  0.61000  0.60010  Biso   1.000  C
  H36      1.0000 0.91490  0.57530  0.59480  Biso   1.000  H
  H37      1.0000 0.98460  0.61420  0.57490  Biso   1.000  H
  H38      1.0000 0.95710  0.61970  0.66410  Biso   1.000  H
  N11      1.0000 0.85960  0.70044  0.69813  Biso   1.000  N
  C37      1.0000 0.85540  0.72972  0.76820  Biso   1.000  C
  N12      1.0000 0.86230  0.78090  0.77223  Biso   1.000  N
  C38      1.0000 0.88070  0.80287  0.70400  Biso   1.000  C
  H39      1.0000 0.88740  0.83780  0.70540  Biso   1.000  H
  C39      1.0000 0.80500  0.73494  0.90200  Biso   1.000  C
  H40      1.0000 0.82400  0.76540  0.90660  Biso   1.000  H
  H41      1.0000 0.82270  0.72200  0.95590  Biso   1.000  H
  C40      1.0000 0.69820  0.73303  0.85910  Biso   1.000  C
  H42      1.0000 0.67900  0.75110  0.80070  Biso   1.000  H
  H43      1.0000 0.67060  0.75030  0.89940  Biso   1.000  H
  C41      1.0000 0.71260  0.64823  0.79890  Biso   1.000  C
  H44      1.0000 0.69590  0.61330  0.80520  Biso   1.000  H
  H45      1.0000 0.69230  0.65590  0.73330  Biso   1.000  H
  C42      1.0000 0.81870  0.65348  0.83900  Biso   1.000  C
  H46      1.0000 0.84780  0.63490  0.80120  Biso   1.000  H
  H47      1.0000 0.84150  0.63930  0.90090  Biso   1.000  H
  O7       1.0000 0.92648  0.84894  0.56162  Biso   1.000  O
  O8       1.0000 0.95856  0.83307  0.38972  Biso   1.000  O
  O9       1.0000 0.96650  0.75423  0.35150  Biso   1.000  O
  N13      1.0000 0.87850  0.69659  0.55471  Biso   1.000  N
  N14      1.0000 0.84592  0.70665  0.84265  Biso   1.000  N
  N15      1.0000 0.65944  0.68121  0.84231  Biso   1.000  N
  H48      1.0000 0.66380  0.66750  0.89790  Biso   1.000  H
  Cd5      1.0000 0.02120  0.90403  0.01807  Biso   1.000  Cd
  C43      1.0000 0.09560  0.71954  0.01190  Biso   1.000  C
  H49      1.0000 0.09120  0.69930  0.05960  Biso   1.000  H
  C44      1.0000 0.07550  0.76938  0.01530  Biso   1.000  C
  C45      1.0000 0.08460  0.80213  0.94350  Biso   1.000  C
  C46      1.0000 0.10900  0.77652  0.87150  Biso   1.000  C
  C47      1.0000 0.12330  0.72510  0.87080  Biso   1.000  C
  C48      1.0000 0.04780  0.78646  0.09570  Biso   1.000  C
  C49      1.0000 0.14780  0.64232  0.95190  Biso   1.000  C
  H50      1.0000 0.19900  0.63730  0.92750  Biso   1.000  H
  H51      1.0000 0.17080  0.63220  0.01650  Biso   1.000  H
  C50      1.0000 0.06550  0.61000  0.89990  Biso   1.000  C
  H52      1.0000 0.08510  0.57530  0.90520  Biso   1.000  H
  H53      1.0000 0.01540  0.61420  0.92510  Biso   1.000  H
  H54      1.0000 0.04290  0.61970  0.83590  Biso   1.000  H
  N16      1.0000 0.14040  0.70044  0.80187  Biso   1.000  N
  C51      1.0000 0.14460  0.72972  0.73180  Biso   1.000  C
  N17      1.0000 0.13770  0.78090  0.72777  Biso   1.000  N
  C52      1.0000 0.11930  0.80287  0.79600  Biso   1.000  C
  H55      1.0000 0.11260  0.83780  0.79460  Biso   1.000  H
  C53      1.0000 0.19500  0.73494  0.59800  Biso   1.000  C
  H56      1.0000 0.17600  0.76540  0.59340  Biso   1.000  H
  H57      1.0000 0.17730  0.72200  0.54410  Biso   1.000  H
  C54      1.0000 0.30180  0.73303  0.64090  Biso   1.000  C
  H58      1.0000 0.32100  0.75110  0.69930  Biso   1.000  H
  H59      1.0000 0.32940  0.75030  0.60060  Biso   1.000  H
  C55      1.0000 0.28740  0.64823  0.70110  Biso   1.000  C
  H60      1.0000 0.30410  0.61330  0.69480  Biso   1.000  H
  H61      1.0000 0.30770  0.65590  0.76670  Biso   1.000  H
  C56      1.0000 0.18130  0.65348  0.66100  Biso   1.000  C
  H62      1.0000 0.15220  0.63490  0.69880  Biso   1.000  H
  H63      1.0000 0.15850  0.63930  0.59910  Biso   1.000  H
  O10      1.0000 0.07352  0.84894  0.93838  Biso   1.000  O
  O11      1.0000 0.04144  0.83307  0.11028  Biso   1.000  O
  O12      1.0000 0.03350  0.75423  0.14850  Biso   1.000  O
  N18      1.0000 0.12150  0.69659  0.94529  Biso   1.000  N
  N19      1.0000 0.15408  0.70665  0.65735  Biso   1.000  N
  N20      1.0000 0.34056  0.68121  0.65769  Biso   1.000  N
  H64      1.0000 0.33620  0.66750  0.60210  Biso   1.000  H
  Cd6      1.0000 0.50000  0.68280  0.75000  Biso   1.000  Cd
  Cd7      1.0000 0.52120  0.59597  0.51807  Biso   1.000  Cd
  C57      1.0000 0.59560  0.78046  0.51190  Biso   1.000  C
  H65      1.0000 0.59120  0.80070  0.55960  Biso   1.000  H
  C58      1.0000 0.57550  0.73062  0.51530  Biso   1.000  C
  C59      1.0000 0.58460  0.69787  0.44350  Biso   1.000  C
  C60      1.0000 0.60900  0.72348  0.37150  Biso   1.000  C
  C61      1.0000 0.62330  0.77490  0.37080  Biso   1.000  C
  C62      1.0000 0.54780  0.71354  0.59570  Biso   1.000  C
  C63      1.0000 0.64780  0.85768  0.45190  Biso   1.000  C
  H66      1.0000 0.69900  0.86270  0.42750  Biso   1.000  H
  H67      1.0000 0.67080  0.86780  0.51650  Biso   1.000  H
  C64      1.0000 0.56550  0.89000  0.39990  Biso   1.000  C
  H68      1.0000 0.58510  0.92470  0.40520  Biso   1.000  H
  H69      1.0000 0.51540  0.88580  0.42510  Biso   1.000  H
  H70      1.0000 0.54290  0.88030  0.33590  Biso   1.000  H
  N21      1.0000 0.64040  0.79956  0.30187  Biso   1.000  N
  C65      1.0000 0.64460  0.77028  0.23180  Biso   1.000  C
  N22      1.0000 0.63770  0.71910  0.22777  Biso   1.000  N
  C66      1.0000 0.61930  0.69713  0.29600  Biso   1.000  C
  H71      1.0000 0.61260  0.66220  0.29460  Biso   1.000  H
  C67      1.0000 0.69500  0.76506  0.09800  Biso   1.000  C
  H72      1.0000 0.67600  0.73460  0.09340  Biso   1.000  H
  H73      1.0000 0.67730  0.77800  0.04410  Biso   1.000  H
  C68      1.0000 0.80180  0.76697  0.14090  Biso   1.000  C
  H74      1.0000 0.82100  0.74890  0.19930  Biso   1.000  H
  H75      1.0000 0.82940  0.74970  0.10060  Biso   1.000  H
  C69      1.0000 0.78740  0.85177  0.20110  Biso   1.000  C
  H76      1.0000 0.80410  0.88670  0.19480  Biso   1.000  H
  H77      1.0000 0.80770  0.84410  0.26670  Biso   1.000  H
  C70      1.0000 0.68130  0.84652  0.16100  Biso   1.000  C
  H78      1.0000 0.65220  0.86510  0.19880  Biso   1.000  H
  H79      1.0000 0.65850  0.86070  0.09910  Biso   1.000  H
  O13      1.0000 0.57352  0.65106  0.43838  Biso   1.000  O
  O14      1.0000 0.54144  0.66693  0.61028  Biso   1.000  O
  O15      1.0000 0.53350  0.74577  0.64850  Biso   1.000  O
  N23      1.0000 0.62150  0.80341  0.44529  Biso   1.000  N
  N24      1.0000 0.65408  0.79335  0.15735  Biso   1.000  N
  N25      1.0000 0.84056  0.81879  0.15769  Biso   1.000  N
  H80      1.0000 0.83620  0.83250  0.10210  Biso   1.000  H
  Cd8      1.0000 0.47880  0.59597  0.98193  Biso   1.000  Cd
  C71      1.0000 0.40440  0.78046  0.98810  Biso   1.000  C
  H81      1.0000 0.40880  0.80070  0.94040  Biso   1.000  H
  C72      1.0000 0.42450  0.73062  0.98470  Biso   1.000  C
  C73      1.0000 0.41540  0.69787  0.05650  Biso   1.000  C
  C74      1.0000 0.39100  0.72348  0.12850  Biso   1.000  C
  C75      1.0000 0.37670  0.77490  0.12920  Biso   1.000  C
  C76      1.0000 0.45220  0.71354  0.90430  Biso   1.000  C
  C77      1.0000 0.35220  0.85768  0.04810  Biso   1.000  C
  H82      1.0000 0.30100  0.86270  0.07250  Biso   1.000  H
  H83      1.0000 0.32920  0.86780  0.98350  Biso   1.000  H
  C78      1.0000 0.43450  0.89000  0.10010  Biso   1.000  C
  H84      1.0000 0.41490  0.92470  0.09480  Biso   1.000  H
  H85      1.0000 0.48460  0.88580  0.07490  Biso   1.000  H
  H86      1.0000 0.45710  0.88030  0.16410  Biso   1.000  H
  N26      1.0000 0.35960  0.79956  0.19813  Biso   1.000  N
  C79      1.0000 0.35540  0.77028  0.26820  Biso   1.000  C
  N27      1.0000 0.36230  0.71910  0.27223  Biso   1.000  N
  C80      1.0000 0.38070  0.69713  0.20400  Biso   1.000  C
  H87      1.0000 0.38740  0.66220  0.20540  Biso   1.000  H
  C81      1.0000 0.30500  0.76506  0.40200  Biso   1.000  C
  H88      1.0000 0.32400  0.73460  0.40660  Biso   1.000  H
  H89      1.0000 0.32270  0.77800  0.45590  Biso   1.000  H
  C82      1.0000 0.19820  0.76697  0.35910  Biso   1.000  C
  H90      1.0000 0.17900  0.74890  0.30070  Biso   1.000  H
  H91      1.0000 0.17060  0.74970  0.39940  Biso   1.000  H
  C83      1.0000 0.21260  0.85177  0.29890  Biso   1.000  C
  H92      1.0000 0.19590  0.88670  0.30520  Biso   1.000  H
  H93      1.0000 0.19230  0.84410  0.23330  Biso   1.000  H
  C84      1.0000 0.31870  0.84652  0.33900  Biso   1.000  C
  H94      1.0000 0.34780  0.86510  0.30120  Biso   1.000  H
  H95      1.0000 0.34150  0.86070  0.40090  Biso   1.000  H
  O16      1.0000 0.42648  0.65106  0.06162  Biso   1.000  O
  O17      1.0000 0.45856  0.66693  0.88972  Biso   1.000  O
  O18      1.0000 0.46650  0.74577  0.85150  Biso   1.000  O
  N28      1.0000 0.37850  0.80341  0.05471  Biso   1.000  N
  N29      1.0000 0.34592  0.79335  0.34265  Biso   1.000  N
  N30      1.0000 0.15944  0.81879  0.34231  Biso   1.000  N
  H96      1.0000 0.16380  0.83250  0.39790  Biso   1.000  H
  Cd9      1.0000 0.00000  0.81720  0.25000  Biso   1.000  Cd
  Cd10     1.0000 0.47880  0.40403  0.48193  Biso   1.000  Cd
  C85      1.0000 0.40440  0.21954  0.48810  Biso   1.000  C
  H97      1.0000 0.40880  0.19930  0.44040  Biso   1.000  H
  C86      1.0000 0.42450  0.26938  0.48470  Biso   1.000  C
  C87      1.0000 0.41540  0.30213  0.55650  Biso   1.000  C
  C88      1.0000 0.39100  0.27652  0.62850  Biso   1.000  C
  C89      1.0000 0.37670  0.22510  0.62920  Biso   1.000  C
  C90      1.0000 0.45220  0.28646  0.40430  Biso   1.000  C
  C91      1.0000 0.35220  0.14232  0.54810  Biso   1.000  C
  H98      1.0000 0.30100  0.13730  0.57250  Biso   1.000  H
  H99      1.0000 0.32920  0.13220  0.48350  Biso   1.000  H
  C92      1.0000 0.43450  0.11000  0.60010  Biso   1.000  C
  H100     1.0000 0.41490  0.07530  0.59480  Biso   1.000  H
  H101     1.0000 0.48460  0.11420  0.57490  Biso   1.000  H
  H102     1.0000 0.45710  0.11970  0.66410  Biso   1.000  H
  N31      1.0000 0.35960  0.20044  0.69813  Biso   1.000  N
  C93      1.0000 0.35540  0.22972  0.76820  Biso   1.000  C
  N32      1.0000 0.36230  0.28090  0.77223  Biso   1.000  N
  C94      1.0000 0.38070  0.30287  0.70400  Biso   1.000  C
  H103     1.0000 0.38740  0.33780  0.70540  Biso   1.000  H
  C95      1.0000 0.30500  0.23494  0.90200  Biso   1.000  C
  H104     1.0000 0.32400  0.26540  0.90660  Biso   1.000  H
  H105     1.0000 0.32270  0.22200  0.95590  Biso   1.000  H
  C96      1.0000 0.19820  0.23303  0.85910  Biso   1.000  C
  H106     1.0000 0.17900  0.25110  0.80070  Biso   1.000  H
  H107     1.0000 0.17060  0.25030  0.89940  Biso   1.000  H
  C97      1.0000 0.21260  0.14823  0.79890  Biso   1.000  C
  H108     1.0000 0.19590  0.11330  0.80520  Biso   1.000  H
  H109     1.0000 0.19230  0.15590  0.73330  Biso   1.000  H
  C98      1.0000 0.31870  0.15348  0.83900  Biso   1.000  C
  H110     1.0000 0.34780  0.13490  0.80120  Biso   1.000  H
  H111     1.0000 0.34150  0.13930  0.90090  Biso   1.000  H
  O19      1.0000 0.42648  0.34894  0.56162  Biso   1.000  O
  O20      1.0000 0.45856  0.33307  0.38972  Biso   1.000  O
  O21      1.0000 0.46650  0.25423  0.35150  Biso   1.000  O
  N33      1.0000 0.37850  0.19659  0.55471  Biso   1.000  N
  N34      1.0000 0.34592  0.20665  0.84265  Biso   1.000  N
  N35      1.0000 0.15944  0.18121  0.84231  Biso   1.000  N
  H112     1.0000 0.16380  0.16750  0.89790  Biso   1.000  H
  Cd11     1.0000 0.52120  0.40403  0.01807  Biso   1.000  Cd
  C99      1.0000 0.59560  0.21954  0.01190  Biso   1.000  C
  H113     1.0000 0.59120  0.19930  0.05960  Biso   1.000  H
  C100     1.0000 0.57550  0.26938  0.01530  Biso   1.000  C
  C101     1.0000 0.58460  0.30213  0.94350  Biso   1.000  C
  C102     1.0000 0.60900  0.27652  0.87150  Biso   1.000  C
  C103     1.0000 0.62330  0.22510  0.87080  Biso   1.000  C
  C104     1.0000 0.54780  0.28646  0.09570  Biso   1.000  C
  C105     1.0000 0.64780  0.14232  0.95190  Biso   1.000  C
  H114     1.0000 0.69900  0.13730  0.92750  Biso   1.000  H
  H115     1.0000 0.67080  0.13220  0.01650  Biso   1.000  H
  C106     1.0000 0.56550  0.11000  0.89990  Biso   1.000  C
  H116     1.0000 0.58510  0.07530  0.90520  Biso   1.000  H
  H117     1.0000 0.51540  0.11420  0.92510  Biso   1.000  H
  H118     1.0000 0.54290  0.11970  0.83590  Biso   1.000  H
  N36      1.0000 0.64040  0.20044  0.80187  Biso   1.000  N
  C107     1.0000 0.64460  0.22972  0.73180  Biso   1.000  C
  N37      1.0000 0.63770  0.28090  0.72777  Biso   1.000  N
  C108     1.0000 0.61930  0.30287  0.79600  Biso   1.000  C
  H119     1.0000 0.61260  0.33780  0.79460  Biso   1.000  H
  C109     1.0000 0.69500  0.23494  0.59800  Biso   1.000  C
  H120     1.0000 0.67600  0.26540  0.59340  Biso   1.000  H
  H121     1.0000 0.67730  0.22200  0.54410  Biso   1.000  H
  C110     1.0000 0.80180  0.23303  0.64090  Biso   1.000  C
  H122     1.0000 0.82100  0.25110  0.69930  Biso   1.000  H
  H123     1.0000 0.82940  0.25030  0.60060  Biso   1.000  H
  C111     1.0000 0.78740  0.14823  0.70110  Biso   1.000  C
  H124     1.0000 0.80410  0.11330  0.69480  Biso   1.000  H
  H125     1.0000 0.80770  0.15590  0.76670  Biso   1.000  H
  C112     1.0000 0.68130  0.15348  0.66100  Biso   1.000  C
  H126     1.0000 0.65220  0.13490  0.69880  Biso   1.000  H
  H127     1.0000 0.65850  0.13930  0.59910  Biso   1.000  H
  O22      1.0000 0.57352  0.34894  0.93838  Biso   1.000  O
  O23      1.0000 0.54144  0.33307  0.11028  Biso   1.000  O
  O24      1.0000 0.53350  0.25423  0.14850  Biso   1.000  O
  N38      1.0000 0.62150  0.19659  0.94529  Biso   1.000  N
  N39      1.0000 0.65408  0.20665  0.65735  Biso   1.000  N
  N40      1.0000 0.84056  0.18121  0.65769  Biso   1.000  N
  H128     1.0000 0.83620  0.16750  0.60210  Biso   1.000  H
  Cd12     1.0000 0.00000  0.18280  0.75000  Biso   1.000  Cd
