data_image0
_cell_length_a       8.432
_cell_length_b       12.954
_cell_length_c       15.023
_cell_angle_alpha    102.275
_cell_angle_beta     104.021
_cell_angle_gamma    97.42

_symmetry_space_group_name_H-M    "P 1"
_symmetry_int_tables_number       1

loop_
  _symmetry_equiv_pos_as_xyz
  'x, y, z'

loop_
  _atom_site_label
  _atom_site_occupancy
  _atom_site_fract_x
  _atom_site_fract_y
  _atom_site_fract_z
  _atom_site_thermal_displace_type
  _atom_site_B_iso_or_equiv
  _atom_site_type_symbol
  N1       1.0000 0.76980  0.52480  0.95170  Biso   1.000  N
  C1       1.0000 0.57510  0.64180  0.95290  Biso   1.000  C
  H1       1.0000 0.55200  0.70880  0.97670  Biso   1.000  H
  Cu1      1.0000 0.35926  0.96637  0.73958  Biso   1.000  Cu
  C2       1.0000 0.29900  0.41340  0.51450  Biso   1.000  C
  H2       1.0000 0.29380  0.46180  0.47320  Biso   1.000  H
  H3       1.0000 0.34530  0.45610  0.57950  Biso   1.000  H
  N2       1.0000 0.66400  0.09780  0.39820  Biso   1.000  N
  N3       1.0000 0.40790  0.33690  0.49160  Biso   1.000  N
  H4       1.0000 0.38180  0.29750  0.43450  Biso   1.000  H
  C3       1.0000 0.71630  0.04450  0.46360  Biso   1.000  C
  H5       1.0000 0.74910  0.97960  0.44410  Biso   1.000  H
  N4       1.0000 0.24150  0.39640  0.72470  Biso   1.000  N
  H6       1.0000 0.24490  0.46310  0.72480  Biso   1.000  H
  C4       1.0000 0.72430  0.07990  0.55760  Biso   1.000  C
  H7       1.0000 0.76070  0.03990  0.60040  Biso   1.000  H
  C5       1.0000 0.67670  0.17680  0.58690  Biso   1.000  C
  H8       1.0000 0.68670  0.20570  0.65060  Biso   1.000  H
  C6       1.0000 0.61620  0.22770  0.52170  Biso   1.000  C
  O1       1.0000 0.37930  0.27840  0.78690  Biso   1.000  O
  C7       1.0000 0.54570  0.32410  0.55350  Biso   1.000  C
  C8       1.0000 0.11440  0.27460  0.56160  Biso   1.000  C
  H9       1.0000 0.01780  0.21850  0.52730  Biso   1.000  H
  H10      1.0000 0.21160  0.24120  0.56710  Biso   1.000  H
  O2       1.0000 0.61250  0.38790  0.63230  Biso   1.000  O
  C9       1.0000 0.64920  0.44720  0.88990  Biso   1.000  C
  H11      1.0000 0.67380  0.37960  0.87030  Biso   1.000  H
  C10      1.0000 0.45120  0.56260  0.88770  Biso   1.000  C
  H12      1.0000 0.34430  0.57560  0.86680  Biso   1.000  H
  C11      1.0000 0.48910  0.46330  0.85400  Biso   1.000  C
  C12      1.0000 0.36450  0.37140  0.78480  Biso   1.000  C
  C13      1.0000 0.73290  0.62150  0.98270  Biso   1.000  C
  H13      1.0000 0.81620  0.67610  0.02550  Biso   1.000  H
  C14      1.0000 0.09990  0.31740  0.65800  Biso   1.000  C
  H14      1.0000 0.00190  0.35010  0.65230  Biso   1.000  H
  H15      1.0000 0.08080  0.25720  0.68550  Biso   1.000  H
  C15      1.0000 0.12830  0.35480  0.50240  Biso   1.000  C
  H16      1.0000 0.08120  0.31690  0.43610  Biso   1.000  H
  H17      1.0000 0.06050  0.40750  0.51730  Biso   1.000  H
  C16      1.0000 0.61580  0.18740  0.42750  Biso   1.000  C
  H18      1.0000 0.57950  0.22640  0.38380  Biso   1.000  H
  N5       1.0000 0.23020  0.47520  0.04830  Biso   1.000  N
  C17      1.0000 0.42490  0.35820  0.04710  Biso   1.000  C
  H19      1.0000 0.44800  0.29120  0.02330  Biso   1.000  H
  Cu2      1.0000 0.64074  0.03363  0.26042  Biso   1.000  Cu
  C18      1.0000 0.70100  0.58660  0.48550  Biso   1.000  C
  H20      1.0000 0.70620  0.53820  0.52680  Biso   1.000  H
  H21      1.0000 0.65470  0.54390  0.42050  Biso   1.000  H
  N6       1.0000 0.33600  0.90220  0.60180  Biso   1.000  N
  N7       1.0000 0.59210  0.66310  0.50840  Biso   1.000  N
  H22      1.0000 0.61820  0.70250  0.56550  Biso   1.000  H
  C19      1.0000 0.28370  0.95550  0.53640  Biso   1.000  C
  H23      1.0000 0.25090  0.02040  0.55590  Biso   1.000  H
  N8       1.0000 0.75850  0.60360  0.27530  Biso   1.000  N
  H24      1.0000 0.75510  0.53690  0.27520  Biso   1.000  H
  C20      1.0000 0.27570  0.92010  0.44240  Biso   1.000  C
  H25      1.0000 0.23930  0.96010  0.39960  Biso   1.000  H
  C21      1.0000 0.32330  0.82320  0.41310  Biso   1.000  C
  H26      1.0000 0.31330  0.79430  0.34940  Biso   1.000  H
  C22      1.0000 0.38380  0.77230  0.47830  Biso   1.000  C
  O3       1.0000 0.62070  0.72160  0.21310  Biso   1.000  O
  C23      1.0000 0.45430  0.67590  0.44650  Biso   1.000  C
  C24      1.0000 0.88560  0.72540  0.43840  Biso   1.000  C
  H27      1.0000 0.98220  0.78150  0.47270  Biso   1.000  H
  H28      1.0000 0.78840  0.75880  0.43290  Biso   1.000  H
  O4       1.0000 0.38750  0.61210  0.36770  Biso   1.000  O
  C25      1.0000 0.35080  0.55280  0.11010  Biso   1.000  C
  H29      1.0000 0.32620  0.62040  0.12970  Biso   1.000  H
  C26      1.0000 0.54880  0.43740  0.11230  Biso   1.000  C
  H30      1.0000 0.65570  0.42440  0.13320  Biso   1.000  H
  C27      1.0000 0.51090  0.53670  0.14600  Biso   1.000  C
  C28      1.0000 0.63550  0.62860  0.21520  Biso   1.000  C
  C29      1.0000 0.26710  0.37850  0.01730  Biso   1.000  C
  H31      1.0000 0.18380  0.32390  0.97450  Biso   1.000  H
  C30      1.0000 0.90010  0.68260  0.34200  Biso   1.000  C
  H32      1.0000 0.99810  0.64990  0.34770  Biso   1.000  H
  H33      1.0000 0.91920  0.74280  0.31450  Biso   1.000  H
  C31      1.0000 0.87170  0.64520  0.49760  Biso   1.000  C
  H34      1.0000 0.91880  0.68310  0.56390  Biso   1.000  H
  H35      1.0000 0.93950  0.59250  0.48270  Biso   1.000  H
  C32      1.0000 0.38420  0.81260  0.57250  Biso   1.000  C
  H36      1.0000 0.42050  0.77360  0.61620  Biso   1.000  H
  Cu3      1.0000 0.00000  0.50000  0.00000  Biso   1.000  Cu
