data_image0
_cell_length_a       18.052
_cell_length_b       18.052
_cell_length_c       19.523
_cell_angle_alpha    90
_cell_angle_beta     90
_cell_angle_gamma    90

_symmetry_space_group_name_H-M    "P 1"
_symmetry_int_tables_number       1

loop_
  _symmetry_equiv_pos_as_xyz
  'x, y, z'

loop_
  _atom_site_label
  _atom_site_occupancy
  _atom_site_fract_x
  _atom_site_fract_y
  _atom_site_fract_z
  _atom_site_thermal_displace_type
  _atom_site_B_iso_or_equiv
  _atom_site_type_symbol
  C1       1.0000 0.21210  0.49750  0.98230  Biso   1.000  C
  H1       1.0000 0.21990  0.54110  0.01220  Biso   1.000  H
  H2       1.0000 0.18460  0.45960  0.00870  Biso   1.000  H
  C2       1.0000 0.16810  0.51980  0.92050  Biso   1.000  C
  H3       1.0000 0.19370  0.56030  0.89590  Biso   1.000  H
  H4       1.0000 0.16300  0.47720  0.88890  Biso   1.000  H
  C3       1.0000 0.09310  0.54530  0.94400  Biso   1.000  C
  H5       1.0000 0.09840  0.57650  0.98450  Biso   1.000  H
  H6       1.0000 0.06950  0.57390  0.90700  Biso   1.000  H
  H7       1.0000 0.06240  0.50210  0.95470  Biso   1.000  H
  Li1      1.0000 0.37310  0.53100  0.07320  Biso   1.000  Li
  C4       1.0000 0.28560  0.46680  0.96020  Biso   1.000  C
  O1       1.0000 0.29420  0.42390  0.90910  Biso   1.000  O
  O2       1.0000 0.33610  0.48170  0.99950  Biso   1.000  O
  C5       1.0000 0.28790  0.50250  0.48230  Biso   1.000  C
  H8       1.0000 0.28010  0.45890  0.51220  Biso   1.000  H
  H9       1.0000 0.31540  0.54040  0.50870  Biso   1.000  H
  C6       1.0000 0.33190  0.48020  0.42050  Biso   1.000  C
  H10      1.0000 0.30630  0.43970  0.39590  Biso   1.000  H
  H11      1.0000 0.33700  0.52280  0.38890  Biso   1.000  H
  C7       1.0000 0.40690  0.45470  0.44400  Biso   1.000  C
  H12      1.0000 0.40160  0.42350  0.48450  Biso   1.000  H
  H13      1.0000 0.43050  0.42610  0.40700  Biso   1.000  H
  H14      1.0000 0.43760  0.49790  0.45470  Biso   1.000  H
  Li2      1.0000 0.12690  0.46900  0.57320  Biso   1.000  Li
  C8       1.0000 0.21440  0.53320  0.46020  Biso   1.000  C
  O3       1.0000 0.20580  0.57610  0.40910  Biso   1.000  O
  O4       1.0000 0.16390  0.51830  0.49950  Biso   1.000  O
  C9       1.0000 0.25250  0.46210  0.23230  Biso   1.000  C
  H15      1.0000 0.20890  0.46990  0.26220  Biso   1.000  H
  H16      1.0000 0.29040  0.43460  0.25870  Biso   1.000  H
  C10      1.0000 0.23020  0.41810  0.17050  Biso   1.000  C
  H17      1.0000 0.18970  0.44370  0.14590  Biso   1.000  H
  H18      1.0000 0.27280  0.41300  0.13890  Biso   1.000  H
  C11      1.0000 0.20470  0.34310  0.19400  Biso   1.000  C
  H19      1.0000 0.17350  0.34840  0.23450  Biso   1.000  H
  H20      1.0000 0.17610  0.31950  0.15700  Biso   1.000  H
  H21      1.0000 0.24790  0.31240  0.20470  Biso   1.000  H
  Li3      1.0000 0.21900  0.62310  0.32320  Biso   1.000  Li
  C12      1.0000 0.28320  0.53560  0.21020  Biso   1.000  C
  O5       1.0000 0.32610  0.54420  0.15910  Biso   1.000  O
  O6       1.0000 0.26830  0.58610  0.24950  Biso   1.000  O
  C13      1.0000 0.24750  0.53790  0.73230  Biso   1.000  C
  H22      1.0000 0.29110  0.53010  0.76220  Biso   1.000  H
  H23      1.0000 0.20960  0.56540  0.75870  Biso   1.000  H
  C14      1.0000 0.26980  0.58190  0.67050  Biso   1.000  C
  H24      1.0000 0.31030  0.55630  0.64590  Biso   1.000  H
  H25      1.0000 0.22720  0.58700  0.63890  Biso   1.000  H
  C15      1.0000 0.29530  0.65690  0.69400  Biso   1.000  C
  H26      1.0000 0.32650  0.65160  0.73450  Biso   1.000  H
  H27      1.0000 0.32390  0.68050  0.65700  Biso   1.000  H
  H28      1.0000 0.25210  0.68760  0.70470  Biso   1.000  H
  Li4      1.0000 0.28100  0.37690  0.82320  Biso   1.000  Li
  C16      1.0000 0.21680  0.46440  0.71020  Biso   1.000  C
  O7       1.0000 0.17390  0.45580  0.65910  Biso   1.000  O
  O8       1.0000 0.23170  0.41390  0.74950  Biso   1.000  O
  C17      1.0000 0.71210  0.99750  0.48230  Biso   1.000  C
  H29      1.0000 0.71990  0.04110  0.51220  Biso   1.000  H
  H30      1.0000 0.68460  0.95960  0.50870  Biso   1.000  H
  C18      1.0000 0.66810  0.01980  0.42050  Biso   1.000  C
  H31      1.0000 0.69370  0.06030  0.39590  Biso   1.000  H
  H32      1.0000 0.66300  0.97720  0.38890  Biso   1.000  H
  C19      1.0000 0.59310  0.04530  0.44400  Biso   1.000  C
  H33      1.0000 0.59840  0.07650  0.48450  Biso   1.000  H
  H34      1.0000 0.56950  0.07390  0.40700  Biso   1.000  H
  H35      1.0000 0.56240  0.00210  0.45470  Biso   1.000  H
  Li5      1.0000 0.87310  0.03100  0.57320  Biso   1.000  Li
  C20      1.0000 0.78560  0.96680  0.46020  Biso   1.000  C
  O9       1.0000 0.79420  0.92390  0.40910  Biso   1.000  O
  O10      1.0000 0.83610  0.98170  0.49950  Biso   1.000  O
  C21      1.0000 0.78790  0.00250  0.98230  Biso   1.000  C
  H36      1.0000 0.78010  0.95890  0.01220  Biso   1.000  H
  H37      1.0000 0.81540  0.04040  0.00870  Biso   1.000  H
  C22      1.0000 0.83190  0.98020  0.92050  Biso   1.000  C
  H38      1.0000 0.80630  0.93970  0.89590  Biso   1.000  H
  H39      1.0000 0.83700  0.02280  0.88890  Biso   1.000  H
  C23      1.0000 0.90690  0.95470  0.94400  Biso   1.000  C
  H40      1.0000 0.90160  0.92350  0.98450  Biso   1.000  H
  H41      1.0000 0.93050  0.92610  0.90700  Biso   1.000  H
  H42      1.0000 0.93760  0.99790  0.95470  Biso   1.000  H
  Li6      1.0000 0.62690  0.96900  0.07320  Biso   1.000  Li
  C24      1.0000 0.71440  0.03320  0.96020  Biso   1.000  C
  O11      1.0000 0.70580  0.07610  0.90910  Biso   1.000  O
  O12      1.0000 0.66390  0.01830  0.99950  Biso   1.000  O
  C25      1.0000 0.75250  0.96210  0.73230  Biso   1.000  C
  H43      1.0000 0.70890  0.96990  0.76220  Biso   1.000  H
  H44      1.0000 0.79040  0.93460  0.75870  Biso   1.000  H
  C26      1.0000 0.73020  0.91810  0.67050  Biso   1.000  C
  H45      1.0000 0.68970  0.94370  0.64590  Biso   1.000  H
  H46      1.0000 0.77280  0.91300  0.63890  Biso   1.000  H
  C27      1.0000 0.70470  0.84310  0.69400  Biso   1.000  C
  H47      1.0000 0.67350  0.84840  0.73450  Biso   1.000  H
  H48      1.0000 0.67610  0.81950  0.65700  Biso   1.000  H
  H49      1.0000 0.74790  0.81240  0.70470  Biso   1.000  H
  Li7      1.0000 0.71900  0.12310  0.82320  Biso   1.000  Li
  C28      1.0000 0.78320  0.03560  0.71020  Biso   1.000  C
  O13      1.0000 0.82610  0.04420  0.65910  Biso   1.000  O
  O14      1.0000 0.76830  0.08610  0.74950  Biso   1.000  O
  C29      1.0000 0.74750  0.03790  0.23230  Biso   1.000  C
  H50      1.0000 0.79110  0.03010  0.26220  Biso   1.000  H
  H51      1.0000 0.70960  0.06540  0.25870  Biso   1.000  H
  C30      1.0000 0.76980  0.08190  0.17050  Biso   1.000  C
  H52      1.0000 0.81030  0.05630  0.14590  Biso   1.000  H
  H53      1.0000 0.72720  0.08700  0.13890  Biso   1.000  H
  C31      1.0000 0.79530  0.15690  0.19400  Biso   1.000  C
  H54      1.0000 0.82650  0.15160  0.23450  Biso   1.000  H
  H55      1.0000 0.82390  0.18050  0.15700  Biso   1.000  H
  H56      1.0000 0.75210  0.18760  0.20470  Biso   1.000  H
  Li8      1.0000 0.78100  0.87690  0.32320  Biso   1.000  Li
  C32      1.0000 0.71680  0.96440  0.21020  Biso   1.000  C
  O15      1.0000 0.67390  0.95580  0.15910  Biso   1.000  O
  O16      1.0000 0.73170  0.91390  0.24950  Biso   1.000  O
  C33      1.0000 0.78790  0.50250  0.01770  Biso   1.000  C
  H57      1.0000 0.78010  0.45890  0.98780  Biso   1.000  H
  H58      1.0000 0.81540  0.54040  0.99130  Biso   1.000  H
  C34      1.0000 0.83190  0.48020  0.07950  Biso   1.000  C
  H59      1.0000 0.80630  0.43970  0.10410  Biso   1.000  H
  H60      1.0000 0.83700  0.52280  0.11110  Biso   1.000  H
  C35      1.0000 0.90690  0.45470  0.05600  Biso   1.000  C
  H61      1.0000 0.90160  0.42350  0.01550  Biso   1.000  H
  H62      1.0000 0.93050  0.42610  0.09300  Biso   1.000  H
  H63      1.0000 0.93760  0.49790  0.04530  Biso   1.000  H
  Li9      1.0000 0.62690  0.46900  0.92680  Biso   1.000  Li
  C36      1.0000 0.71440  0.53320  0.03980  Biso   1.000  C
  O17      1.0000 0.70580  0.57610  0.09090  Biso   1.000  O
  O18      1.0000 0.66390  0.51830  0.00050  Biso   1.000  O
  C37      1.0000 0.71210  0.49750  0.51770  Biso   1.000  C
  H64      1.0000 0.71990  0.54110  0.48780  Biso   1.000  H
  H65      1.0000 0.68460  0.45960  0.49130  Biso   1.000  H
  C38      1.0000 0.66810  0.51980  0.57950  Biso   1.000  C
  H66      1.0000 0.69370  0.56030  0.60410  Biso   1.000  H
  H67      1.0000 0.66300  0.47720  0.61110  Biso   1.000  H
  C39      1.0000 0.59310  0.54530  0.55600  Biso   1.000  C
  H68      1.0000 0.59840  0.57650  0.51550  Biso   1.000  H
  H69      1.0000 0.56950  0.57390  0.59300  Biso   1.000  H
  H70      1.0000 0.56240  0.50210  0.54530  Biso   1.000  H
  Li10     1.0000 0.87310  0.53100  0.42680  Biso   1.000  Li
  C40      1.0000 0.78560  0.46680  0.53980  Biso   1.000  C
  O19      1.0000 0.79420  0.42390  0.59090  Biso   1.000  O
  O20      1.0000 0.83610  0.48170  0.50050  Biso   1.000  O
  C41      1.0000 0.74750  0.53790  0.76770  Biso   1.000  C
  H71      1.0000 0.79110  0.53010  0.73780  Biso   1.000  H
  H72      1.0000 0.70960  0.56540  0.74130  Biso   1.000  H
  C42      1.0000 0.76980  0.58190  0.82950  Biso   1.000  C
  H73      1.0000 0.81030  0.55630  0.85410  Biso   1.000  H
  H74      1.0000 0.72720  0.58700  0.86110  Biso   1.000  H
  C43      1.0000 0.79530  0.65690  0.80600  Biso   1.000  C
  H75      1.0000 0.82650  0.65160  0.76550  Biso   1.000  H
  H76      1.0000 0.82390  0.68050  0.84300  Biso   1.000  H
  H77      1.0000 0.75210  0.68760  0.79530  Biso   1.000  H
  Li11     1.0000 0.78100  0.37690  0.67680  Biso   1.000  Li
  C44      1.0000 0.71680  0.46440  0.78980  Biso   1.000  C
  O21      1.0000 0.67390  0.45580  0.84090  Biso   1.000  O
  O22      1.0000 0.73170  0.41390  0.75050  Biso   1.000  O
  C45      1.0000 0.75250  0.46210  0.26770  Biso   1.000  C
  H78      1.0000 0.70890  0.46990  0.23780  Biso   1.000  H
  H79      1.0000 0.79040  0.43460  0.24130  Biso   1.000  H
  C46      1.0000 0.73020  0.41810  0.32950  Biso   1.000  C
  H80      1.0000 0.68970  0.44370  0.35410  Biso   1.000  H
  H81      1.0000 0.77280  0.41300  0.36110  Biso   1.000  H
  C47      1.0000 0.70470  0.34310  0.30600  Biso   1.000  C
  H82      1.0000 0.67350  0.34840  0.26550  Biso   1.000  H
  H83      1.0000 0.67610  0.31950  0.34300  Biso   1.000  H
  H84      1.0000 0.74790  0.31240  0.29530  Biso   1.000  H
  Li12     1.0000 0.71900  0.62310  0.17680  Biso   1.000  Li
  C48      1.0000 0.78320  0.53560  0.28980  Biso   1.000  C
  O23      1.0000 0.82610  0.54420  0.34090  Biso   1.000  O
  O24      1.0000 0.76830  0.58610  0.25050  Biso   1.000  O
  C49      1.0000 0.28790  0.00250  0.51770  Biso   1.000  C
  H85      1.0000 0.28010  0.95890  0.48780  Biso   1.000  H
  H86      1.0000 0.31540  0.04040  0.49130  Biso   1.000  H
  C50      1.0000 0.33190  0.98020  0.57950  Biso   1.000  C
  H87      1.0000 0.30630  0.93970  0.60410  Biso   1.000  H
  H88      1.0000 0.33700  0.02280  0.61110  Biso   1.000  H
  C51      1.0000 0.40690  0.95470  0.55600  Biso   1.000  C
  H89      1.0000 0.40160  0.92350  0.51550  Biso   1.000  H
  H90      1.0000 0.43050  0.92610  0.59300  Biso   1.000  H
  H91      1.0000 0.43760  0.99790  0.54530  Biso   1.000  H
  Li13     1.0000 0.12690  0.96900  0.42680  Biso   1.000  Li
  C52      1.0000 0.21440  0.03320  0.53980  Biso   1.000  C
  O25      1.0000 0.20580  0.07610  0.59090  Biso   1.000  O
  O26      1.0000 0.16390  0.01830  0.50050  Biso   1.000  O
  C53      1.0000 0.21210  0.99750  0.01770  Biso   1.000  C
  H92      1.0000 0.21990  0.04110  0.98780  Biso   1.000  H
  H93      1.0000 0.18460  0.95960  0.99130  Biso   1.000  H
  C54      1.0000 0.16810  0.01980  0.07950  Biso   1.000  C
  H94      1.0000 0.19370  0.06030  0.10410  Biso   1.000  H
  H95      1.0000 0.16300  0.97720  0.11110  Biso   1.000  H
  C55      1.0000 0.09310  0.04530  0.05600  Biso   1.000  C
  H96      1.0000 0.09840  0.07650  0.01550  Biso   1.000  H
  H97      1.0000 0.06950  0.07390  0.09300  Biso   1.000  H
  H98      1.0000 0.06240  0.00210  0.04530  Biso   1.000  H
  Li14     1.0000 0.37310  0.03100  0.92680  Biso   1.000  Li
  C56      1.0000 0.28560  0.96680  0.03980  Biso   1.000  C
  O27      1.0000 0.29420  0.92390  0.09090  Biso   1.000  O
  O28      1.0000 0.33610  0.98170  0.00050  Biso   1.000  O
  C57      1.0000 0.24750  0.03790  0.26770  Biso   1.000  C
  H99      1.0000 0.29110  0.03010  0.23780  Biso   1.000  H
  H100     1.0000 0.20960  0.06540  0.24130  Biso   1.000  H
  C58      1.0000 0.26980  0.08190  0.32950  Biso   1.000  C
  H101     1.0000 0.31030  0.05630  0.35410  Biso   1.000  H
  H102     1.0000 0.22720  0.08700  0.36110  Biso   1.000  H
  C59      1.0000 0.29530  0.15690  0.30600  Biso   1.000  C
  H103     1.0000 0.32650  0.15160  0.26550  Biso   1.000  H
  H104     1.0000 0.32390  0.18050  0.34300  Biso   1.000  H
  H105     1.0000 0.25210  0.18760  0.29530  Biso   1.000  H
  Li15     1.0000 0.28100  0.87690  0.17680  Biso   1.000  Li
  C60      1.0000 0.21680  0.96440  0.28980  Biso   1.000  C
  O29      1.0000 0.17390  0.95580  0.34090  Biso   1.000  O
  O30      1.0000 0.23170  0.91390  0.25050  Biso   1.000  O
  C61      1.0000 0.25250  0.96210  0.76770  Biso   1.000  C
  H106     1.0000 0.20890  0.96990  0.73780  Biso   1.000  H
  H107     1.0000 0.29040  0.93460  0.74130  Biso   1.000  H
  C62      1.0000 0.23020  0.91810  0.82950  Biso   1.000  C
  H108     1.0000 0.18970  0.94370  0.85410  Biso   1.000  H
  H109     1.0000 0.27280  0.91300  0.86110  Biso   1.000  H
  C63      1.0000 0.20470  0.84310  0.80600  Biso   1.000  C
  H110     1.0000 0.17350  0.84840  0.76550  Biso   1.000  H
  H111     1.0000 0.17610  0.81950  0.84300  Biso   1.000  H
  H112     1.0000 0.24790  0.81240  0.79530  Biso   1.000  H
  Li16     1.0000 0.21900  0.12310  0.67680  Biso   1.000  Li
  C64      1.0000 0.28320  0.03560  0.78980  Biso   1.000  C
  O31      1.0000 0.32610  0.04420  0.84090  Biso   1.000  O
  O32      1.0000 0.26830  0.08610  0.75050  Biso   1.000  O
