data_image0
_cell_length_a       8.9828
_cell_length_b       10.89
_cell_length_c       12.5692
_cell_angle_alpha    64.737
_cell_angle_beta     81.959
_cell_angle_gamma    72.249

_symmetry_space_group_name_H-M    "P 1"
_symmetry_int_tables_number       1

loop_
  _symmetry_equiv_pos_as_xyz
  'x, y, z'

loop_
  _atom_site_label
  _atom_site_occupancy
  _atom_site_fract_x
  _atom_site_fract_y
  _atom_site_fract_z
  _atom_site_thermal_displace_type
  _atom_site_B_iso_or_equiv
  _atom_site_type_symbol
  Ag1      1.0000 0.86032  0.51620  0.30463  Biso   1.000  Ag
  C1       1.0000 0.37460  0.60210  0.01970  Biso   1.000  C
  C2       1.0000 0.11770  0.66190  0.11490  Biso   1.000  C
  C3       1.0000 0.24310  0.71780  0.03810  Biso   1.000  C
  H1       1.0000 0.28470  0.76420  0.07320  Biso   1.000  H
  H2       1.0000 0.19960  0.78780  0.96250  Biso   1.000  H
  C4       1.0000 0.52880  0.60260  0.02490  Biso   1.000  C
  H3       1.0000 0.54820  0.67110  0.04220  Biso   1.000  H
  C5       1.0000 0.65240  0.50300  0.00460  Biso   1.000  C
  H4       1.0000 0.75430  0.50570  0.00720  Biso   1.000  H
  C6       1.0000 0.64520  0.31460  0.30100  Biso   1.000  C
  C7       1.0000 0.54370  0.24030  0.28670  Biso   1.000  C
  H5       1.0000 0.58730  0.20690  0.22570  Biso   1.000  H
  H6       1.0000 0.44180  0.30610  0.26090  Biso   1.000  H
  C8       1.0000 0.52360  0.11400  0.40060  Biso   1.000  C
  C9       1.0000 0.47510  0.01040  0.39040  Biso   1.000  C
  H7       1.0000 0.45760  0.01810  0.31630  Biso   1.000  H
  C10      1.0000 0.45260  0.89610  0.48900  Biso   1.000  C
  H8       1.0000 0.42150  0.82610  0.48170  Biso   1.000  H
  N1       1.0000 0.02350  0.61900  0.17440  Biso   1.000  N
  N2       1.0000 0.72460  0.37390  0.30880  Biso   1.000  N
  Ag2      1.0000 0.13968  0.48380  0.69537  Biso   1.000  Ag
  C11      1.0000 0.62540  0.39790  0.98030  Biso   1.000  C
  C12      1.0000 0.88230  0.33810  0.88510  Biso   1.000  C
  C13      1.0000 0.75690  0.28220  0.96190  Biso   1.000  C
  H9       1.0000 0.71530  0.23580  0.92680  Biso   1.000  H
  H10      1.0000 0.80040  0.21220  0.03750  Biso   1.000  H
  C14      1.0000 0.47120  0.39740  0.97510  Biso   1.000  C
  H11      1.0000 0.45180  0.32890  0.95780  Biso   1.000  H
  C15      1.0000 0.34760  0.49700  0.99540  Biso   1.000  C
  H12      1.0000 0.24570  0.49430  0.99280  Biso   1.000  H
  C16      1.0000 0.35480  0.68540  0.69900  Biso   1.000  C
  C17      1.0000 0.45630  0.75970  0.71330  Biso   1.000  C
  H13      1.0000 0.41270  0.79310  0.77430  Biso   1.000  H
  H14      1.0000 0.55820  0.69390  0.73910  Biso   1.000  H
  C18      1.0000 0.47640  0.88600  0.59940  Biso   1.000  C
  C19      1.0000 0.52490  0.98960  0.60960  Biso   1.000  C
  H15      1.0000 0.54240  0.98190  0.68370  Biso   1.000  H
  C20      1.0000 0.54740  0.10390  0.51100  Biso   1.000  C
  H16      1.0000 0.57850  0.17390  0.51830  Biso   1.000  H
  N3       1.0000 0.97650  0.38100  0.82560  Biso   1.000  N
  N4       1.0000 0.27540  0.62610  0.69120  Biso   1.000  N
