data_image0
_cell_length_a       17.811
_cell_length_b       19.155
_cell_length_c       14.683
_cell_angle_alpha    90
_cell_angle_beta     90
_cell_angle_gamma    90

_symmetry_space_group_name_H-M    "P 1"
_symmetry_int_tables_number       1

loop_
  _symmetry_equiv_pos_as_xyz
  'x, y, z'

loop_
  _atom_site_label
  _atom_site_occupancy
  _atom_site_fract_x
  _atom_site_fract_y
  _atom_site_fract_z
  _atom_site_thermal_displace_type
  _atom_site_B_iso_or_equiv
  _atom_site_type_symbol
  Cd1      1.0000 0.25713  0.96963  0.62898  Biso   1.000  Cd
  C1       1.0000 0.43460  0.01880  0.62000  Biso   1.000  C
  H1       1.0000 0.42310  0.06590  0.61300  Biso   1.000  H
  C2       1.0000 0.50520  0.99200  0.62470  Biso   1.000  C
  H2       1.0000 0.55020  0.01670  0.62280  Biso   1.000  H
  C3       1.0000 0.42360  0.90770  0.63270  Biso   1.000  C
  H3       1.0000 0.40320  0.86310  0.63620  Biso   1.000  H
  C4       1.0000 0.55850  0.86810  0.63260  Biso   1.000  C
  H4       1.0000 0.55390  0.83820  0.68560  Biso   1.000  H
  H5       1.0000 0.60670  0.89160  0.63560  Biso   1.000  H
  C5       1.0000 0.55440  0.82470  0.54710  Biso   1.000  C
  C6       1.0000 0.58290  0.84920  0.46580  Biso   1.000  C
  H6       1.0000 0.60860  0.89140  0.46580  Biso   1.000  H
  C7       1.0000 0.57510  0.81350  0.38440  Biso   1.000  C
  C8       1.0000 0.60540  0.84350  0.29440  Biso   1.000  C
  H7       1.0000 0.56920  0.87520  0.26900  Biso   1.000  H
  H8       1.0000 0.61450  0.80620  0.25220  Biso   1.000  H
  H9       1.0000 0.65150  0.86800  0.30580  Biso   1.000  H
  C9       1.0000 0.53600  0.74900  0.38590  Biso   1.000  C
  H10      1.0000 0.52890  0.72440  0.33200  Biso   1.000  H
  C10      1.0000 0.50830  0.72220  0.46730  Biso   1.000  C
  C11      1.0000 0.51730  0.75840  0.54690  Biso   1.000  C
  C12      1.0000 0.54240  0.69220  0.68040  Biso   1.000  C
  H11      1.0000 0.57700  0.72330  0.71130  Biso   1.000  H
  H12      1.0000 0.57100  0.66220  0.64010  Biso   1.000  H
  H13      1.0000 0.46460  0.61830  0.71830  Biso   1.000  H
  C13      1.0000 0.47280  0.64920  0.46500  Biso   1.000  C
  H14      1.0000 0.45780  0.63590  0.52610  Biso   1.000  H
  H15      1.0000 0.42820  0.65010  0.42710  Biso   1.000  H
  C14      1.0000 0.60200  0.59920  0.43300  Biso   1.000  C
  H16      1.0000 0.62870  0.63470  0.46150  Biso   1.000  H
  C15      1.0000 0.57520  0.50730  0.36020  Biso   1.000  C
  H17      1.0000 0.57980  0.46640  0.32660  Biso   1.000  H
  C16      1.0000 0.51020  0.53710  0.38390  Biso   1.000  C
  H18      1.0000 0.46240  0.51990  0.37180  Biso   1.000  H
  N1       1.0000 0.38300  0.96590  0.62700  Biso   1.000  N
  N2       1.0000 0.49680  0.92110  0.63290  Biso   1.000  N
  N3       1.0000 0.52660  0.59690  0.42860  Biso   1.000  N
  N4       1.0000 0.63350  0.54560  0.39240  Biso   1.000  N
  O1       1.0000 0.48860  0.73240  0.62840  Biso   1.000  O
  Cd2      1.0000 0.24287  0.53037  0.12898  Biso   1.000  Cd
  C17      1.0000 0.06540  0.48120  0.12000  Biso   1.000  C
  H19      1.0000 0.07690  0.43410  0.11300  Biso   1.000  H
  C18      1.0000 0.99480  0.50800  0.12470  Biso   1.000  C
  H20      1.0000 0.94980  0.48330  0.12280  Biso   1.000  H
  C19      1.0000 0.07640  0.59230  0.13270  Biso   1.000  C
  H21      1.0000 0.09680  0.63690  0.13620  Biso   1.000  H
  C20      1.0000 0.94150  0.63190  0.13260  Biso   1.000  C
  H22      1.0000 0.94610  0.66180  0.18560  Biso   1.000  H
  H23      1.0000 0.89330  0.60840  0.13560  Biso   1.000  H
  C21      1.0000 0.94560  0.67530  0.04710  Biso   1.000  C
  C22      1.0000 0.91710  0.65080  0.96580  Biso   1.000  C
  H24      1.0000 0.89140  0.60860  0.96580  Biso   1.000  H
  C23      1.0000 0.92490  0.68650  0.88440  Biso   1.000  C
  C24      1.0000 0.89460  0.65650  0.79440  Biso   1.000  C
  H25      1.0000 0.93080  0.62480  0.76900  Biso   1.000  H
  H26      1.0000 0.88550  0.69380  0.75220  Biso   1.000  H
  H27      1.0000 0.84850  0.63200  0.80580  Biso   1.000  H
  C25      1.0000 0.96400  0.75100  0.88590  Biso   1.000  C
  H28      1.0000 0.97110  0.77560  0.83200  Biso   1.000  H
  C26      1.0000 0.99170  0.77780  0.96730  Biso   1.000  C
  C27      1.0000 0.98270  0.74160  0.04690  Biso   1.000  C
  C28      1.0000 0.95760  0.80780  0.18040  Biso   1.000  C
  H29      1.0000 0.92300  0.77670  0.21130  Biso   1.000  H
  H30      1.0000 0.92900  0.83780  0.14010  Biso   1.000  H
  H31      1.0000 0.03540  0.88170  0.21830  Biso   1.000  H
  C29      1.0000 0.02720  0.85080  0.96500  Biso   1.000  C
  H32      1.0000 0.04220  0.86410  0.02610  Biso   1.000  H
  H33      1.0000 0.07180  0.84990  0.92710  Biso   1.000  H
  C30      1.0000 0.89800  0.90080  0.93300  Biso   1.000  C
  H34      1.0000 0.87130  0.86530  0.96150  Biso   1.000  H
  C31      1.0000 0.92480  0.99270  0.86020  Biso   1.000  C
  H35      1.0000 0.92020  0.03360  0.82660  Biso   1.000  H
  C32      1.0000 0.98980  0.96290  0.88390  Biso   1.000  C
  H36      1.0000 0.03760  0.98010  0.87180  Biso   1.000  H
  N5       1.0000 0.11700  0.53410  0.12700  Biso   1.000  N
  N6       1.0000 0.00320  0.57890  0.13290  Biso   1.000  N
  N7       1.0000 0.97340  0.90310  0.92860  Biso   1.000  N
  N8       1.0000 0.86650  0.95440  0.89240  Biso   1.000  N
  O2       1.0000 0.01140  0.76760  0.12840  Biso   1.000  O
  Cd3      1.0000 0.74287  0.96963  0.87102  Biso   1.000  Cd
  C33      1.0000 0.56540  0.01880  0.88000  Biso   1.000  C
  H37      1.0000 0.57690  0.06590  0.88700  Biso   1.000  H
  C34      1.0000 0.49480  0.99200  0.87530  Biso   1.000  C
  H38      1.0000 0.44980  0.01670  0.87720  Biso   1.000  H
  C35      1.0000 0.57640  0.90770  0.86730  Biso   1.000  C
  H39      1.0000 0.59680  0.86310  0.86380  Biso   1.000  H
  C36      1.0000 0.44150  0.86810  0.86740  Biso   1.000  C
  H40      1.0000 0.44610  0.83820  0.81440  Biso   1.000  H
  H41      1.0000 0.39330  0.89160  0.86440  Biso   1.000  H
  C37      1.0000 0.44560  0.82470  0.95290  Biso   1.000  C
  C38      1.0000 0.41710  0.84920  0.03420  Biso   1.000  C
  H42      1.0000 0.39140  0.89140  0.03420  Biso   1.000  H
  C39      1.0000 0.42490  0.81350  0.11560  Biso   1.000  C
  C40      1.0000 0.39460  0.84350  0.20560  Biso   1.000  C
  H43      1.0000 0.43080  0.87520  0.23100  Biso   1.000  H
  H44      1.0000 0.38550  0.80620  0.24780  Biso   1.000  H
  H45      1.0000 0.34850  0.86800  0.19420  Biso   1.000  H
  C41      1.0000 0.46400  0.74900  0.11410  Biso   1.000  C
  H46      1.0000 0.47110  0.72440  0.16800  Biso   1.000  H
  C42      1.0000 0.49170  0.72220  0.03270  Biso   1.000  C
  C43      1.0000 0.48270  0.75840  0.95310  Biso   1.000  C
  C44      1.0000 0.45760  0.69220  0.81960  Biso   1.000  C
  H47      1.0000 0.42300  0.72330  0.78870  Biso   1.000  H
  H48      1.0000 0.42900  0.66220  0.85990  Biso   1.000  H
  H49      1.0000 0.53540  0.61830  0.78170  Biso   1.000  H
  C45      1.0000 0.52720  0.64920  0.03500  Biso   1.000  C
  H50      1.0000 0.54220  0.63590  0.97390  Biso   1.000  H
  H51      1.0000 0.57180  0.65010  0.07290  Biso   1.000  H
  C46      1.0000 0.39800  0.59920  0.06700  Biso   1.000  C
  H52      1.0000 0.37130  0.63470  0.03850  Biso   1.000  H
  C47      1.0000 0.42480  0.50730  0.13980  Biso   1.000  C
  H53      1.0000 0.42020  0.46640  0.17340  Biso   1.000  H
  C48      1.0000 0.48980  0.53710  0.11610  Biso   1.000  C
  H54      1.0000 0.53760  0.51990  0.12820  Biso   1.000  H
  N9       1.0000 0.61700  0.96590  0.87300  Biso   1.000  N
  N10      1.0000 0.50320  0.92110  0.86710  Biso   1.000  N
  N11      1.0000 0.47340  0.59690  0.07140  Biso   1.000  N
  N12      1.0000 0.36650  0.54560  0.10760  Biso   1.000  N
  O3       1.0000 0.51140  0.73240  0.87160  Biso   1.000  O
  Cd4      1.0000 0.75713  0.53037  0.37102  Biso   1.000  Cd
  C49      1.0000 0.93460  0.48120  0.38000  Biso   1.000  C
  H55      1.0000 0.92310  0.43410  0.38700  Biso   1.000  H
  C50      1.0000 0.00520  0.50800  0.37530  Biso   1.000  C
  H56      1.0000 0.05020  0.48330  0.37720  Biso   1.000  H
  C51      1.0000 0.92360  0.59230  0.36730  Biso   1.000  C
  H57      1.0000 0.90320  0.63690  0.36380  Biso   1.000  H
  C52      1.0000 0.05850  0.63190  0.36740  Biso   1.000  C
  H58      1.0000 0.05390  0.66180  0.31440  Biso   1.000  H
  H59      1.0000 0.10670  0.60840  0.36440  Biso   1.000  H
  C53      1.0000 0.05440  0.67530  0.45290  Biso   1.000  C
  C54      1.0000 0.08290  0.65080  0.53420  Biso   1.000  C
  H60      1.0000 0.10860  0.60860  0.53420  Biso   1.000  H
  C55      1.0000 0.07510  0.68650  0.61560  Biso   1.000  C
  C56      1.0000 0.10540  0.65650  0.70560  Biso   1.000  C
  H61      1.0000 0.06920  0.62480  0.73100  Biso   1.000  H
  H62      1.0000 0.11450  0.69380  0.74780  Biso   1.000  H
  H63      1.0000 0.15150  0.63200  0.69420  Biso   1.000  H
  C57      1.0000 0.03600  0.75100  0.61410  Biso   1.000  C
  H64      1.0000 0.02890  0.77560  0.66800  Biso   1.000  H
  C58      1.0000 0.00830  0.77780  0.53270  Biso   1.000  C
  C59      1.0000 0.01730  0.74160  0.45310  Biso   1.000  C
  C60      1.0000 0.04240  0.80780  0.31960  Biso   1.000  C
  H65      1.0000 0.07700  0.77670  0.28870  Biso   1.000  H
  H66      1.0000 0.07100  0.83780  0.35990  Biso   1.000  H
  H67      1.0000 0.96460  0.88170  0.28170  Biso   1.000  H
  C61      1.0000 0.97280  0.85080  0.53500  Biso   1.000  C
  H68      1.0000 0.95780  0.86410  0.47390  Biso   1.000  H
  H69      1.0000 0.92820  0.84990  0.57290  Biso   1.000  H
  C62      1.0000 0.10200  0.90080  0.56700  Biso   1.000  C
  H70      1.0000 0.12870  0.86530  0.53850  Biso   1.000  H
  C63      1.0000 0.07520  0.99270  0.63980  Biso   1.000  C
  H71      1.0000 0.07980  0.03360  0.67340  Biso   1.000  H
  C64      1.0000 0.01020  0.96290  0.61610  Biso   1.000  C
  H72      1.0000 0.96240  0.98010  0.62820  Biso   1.000  H
  N13      1.0000 0.88300  0.53410  0.37300  Biso   1.000  N
  N14      1.0000 0.99680  0.57890  0.36710  Biso   1.000  N
  N15      1.0000 0.02660  0.90310  0.57140  Biso   1.000  N
  N16      1.0000 0.13350  0.95440  0.60760  Biso   1.000  N
  O4       1.0000 0.98860  0.76760  0.37160  Biso   1.000  O
  C65      1.0000 0.50000  0.64810  0.75000  Biso   1.000  C
  C66      1.0000 0.00000  0.85190  0.25000  Biso   1.000  C
  Cd5      1.0000 0.75713  0.46963  0.62898  Biso   1.000  Cd
  C67      1.0000 0.93460  0.51880  0.62000  Biso   1.000  C
  H73      1.0000 0.92310  0.56590  0.61300  Biso   1.000  H
  C68      1.0000 0.00520  0.49200  0.62470  Biso   1.000  C
  H74      1.0000 0.05020  0.51670  0.62280  Biso   1.000  H
  C69      1.0000 0.92360  0.40770  0.63270  Biso   1.000  C
  H75      1.0000 0.90320  0.36310  0.63620  Biso   1.000  H
  C70      1.0000 0.05850  0.36810  0.63260  Biso   1.000  C
  H76      1.0000 0.05390  0.33820  0.68560  Biso   1.000  H
  H77      1.0000 0.10670  0.39160  0.63560  Biso   1.000  H
  C71      1.0000 0.05440  0.32470  0.54710  Biso   1.000  C
  C72      1.0000 0.08290  0.34920  0.46580  Biso   1.000  C
  H78      1.0000 0.10860  0.39140  0.46580  Biso   1.000  H
  C73      1.0000 0.07510  0.31350  0.38440  Biso   1.000  C
  C74      1.0000 0.10540  0.34350  0.29440  Biso   1.000  C
  H79      1.0000 0.06920  0.37520  0.26900  Biso   1.000  H
  H80      1.0000 0.11450  0.30620  0.25220  Biso   1.000  H
  H81      1.0000 0.15150  0.36800  0.30580  Biso   1.000  H
  C75      1.0000 0.03600  0.24900  0.38590  Biso   1.000  C
  H82      1.0000 0.02890  0.22440  0.33200  Biso   1.000  H
  C76      1.0000 0.00830  0.22220  0.46730  Biso   1.000  C
  C77      1.0000 0.01730  0.25840  0.54690  Biso   1.000  C
  C78      1.0000 0.04240  0.19220  0.68040  Biso   1.000  C
  H83      1.0000 0.07700  0.22330  0.71130  Biso   1.000  H
  H84      1.0000 0.07100  0.16220  0.64010  Biso   1.000  H
  H85      1.0000 0.96460  0.11830  0.71830  Biso   1.000  H
  C79      1.0000 0.97280  0.14920  0.46500  Biso   1.000  C
  H86      1.0000 0.95780  0.13590  0.52610  Biso   1.000  H
  H87      1.0000 0.92820  0.15010  0.42710  Biso   1.000  H
  C80      1.0000 0.10200  0.09920  0.43300  Biso   1.000  C
  H88      1.0000 0.12870  0.13470  0.46150  Biso   1.000  H
  C81      1.0000 0.07520  0.00730  0.36020  Biso   1.000  C
  H89      1.0000 0.07980  0.96640  0.32660  Biso   1.000  H
  C82      1.0000 0.01020  0.03710  0.38390  Biso   1.000  C
  H90      1.0000 0.96240  0.01990  0.37180  Biso   1.000  H
  N17      1.0000 0.88300  0.46590  0.62700  Biso   1.000  N
  N18      1.0000 0.99680  0.42110  0.63290  Biso   1.000  N
  N19      1.0000 0.02660  0.09690  0.42860  Biso   1.000  N
  N20      1.0000 0.13350  0.04560  0.39240  Biso   1.000  N
  O5       1.0000 0.98860  0.23240  0.62840  Biso   1.000  O
  Cd6      1.0000 0.74287  0.03037  0.12898  Biso   1.000  Cd
  C83      1.0000 0.56540  0.98120  0.12000  Biso   1.000  C
  H91      1.0000 0.57690  0.93410  0.11300  Biso   1.000  H
  C84      1.0000 0.49480  0.00800  0.12470  Biso   1.000  C
  H92      1.0000 0.44980  0.98330  0.12280  Biso   1.000  H
  C85      1.0000 0.57640  0.09230  0.13270  Biso   1.000  C
  H93      1.0000 0.59680  0.13690  0.13620  Biso   1.000  H
  C86      1.0000 0.44150  0.13190  0.13260  Biso   1.000  C
  H94      1.0000 0.44610  0.16180  0.18560  Biso   1.000  H
  H95      1.0000 0.39330  0.10840  0.13560  Biso   1.000  H
  C87      1.0000 0.44560  0.17530  0.04710  Biso   1.000  C
  C88      1.0000 0.41710  0.15080  0.96580  Biso   1.000  C
  H96      1.0000 0.39140  0.10860  0.96580  Biso   1.000  H
  C89      1.0000 0.42490  0.18650  0.88440  Biso   1.000  C
  C90      1.0000 0.39460  0.15650  0.79440  Biso   1.000  C
  H97      1.0000 0.43080  0.12480  0.76900  Biso   1.000  H
  H98      1.0000 0.38550  0.19380  0.75220  Biso   1.000  H
  H99      1.0000 0.34850  0.13200  0.80580  Biso   1.000  H
  C91      1.0000 0.46400  0.25100  0.88590  Biso   1.000  C
  H100     1.0000 0.47110  0.27560  0.83200  Biso   1.000  H
  C92      1.0000 0.49170  0.27780  0.96730  Biso   1.000  C
  C93      1.0000 0.48270  0.24160  0.04690  Biso   1.000  C
  C94      1.0000 0.45760  0.30780  0.18040  Biso   1.000  C
  H101     1.0000 0.42300  0.27670  0.21130  Biso   1.000  H
  H102     1.0000 0.42900  0.33780  0.14010  Biso   1.000  H
  H103     1.0000 0.53540  0.38170  0.21830  Biso   1.000  H
  C95      1.0000 0.52720  0.35080  0.96500  Biso   1.000  C
  H104     1.0000 0.54220  0.36410  0.02610  Biso   1.000  H
  H105     1.0000 0.57180  0.34990  0.92710  Biso   1.000  H
  C96      1.0000 0.39800  0.40080  0.93300  Biso   1.000  C
  H106     1.0000 0.37130  0.36530  0.96150  Biso   1.000  H
  C97      1.0000 0.42480  0.49270  0.86020  Biso   1.000  C
  H107     1.0000 0.42020  0.53360  0.82660  Biso   1.000  H
  C98      1.0000 0.48980  0.46290  0.88390  Biso   1.000  C
  H108     1.0000 0.53760  0.48010  0.87180  Biso   1.000  H
  N21      1.0000 0.61700  0.03410  0.12700  Biso   1.000  N
  N22      1.0000 0.50320  0.07890  0.13290  Biso   1.000  N
  N23      1.0000 0.47340  0.40310  0.92860  Biso   1.000  N
  N24      1.0000 0.36650  0.45440  0.89240  Biso   1.000  N
  O6       1.0000 0.51140  0.26760  0.12840  Biso   1.000  O
  Cd7      1.0000 0.24287  0.46963  0.87102  Biso   1.000  Cd
  C99      1.0000 0.06540  0.51880  0.88000  Biso   1.000  C
  H109     1.0000 0.07690  0.56590  0.88700  Biso   1.000  H
  C100     1.0000 0.99480  0.49200  0.87530  Biso   1.000  C
  H110     1.0000 0.94980  0.51670  0.87720  Biso   1.000  H
  C101     1.0000 0.07640  0.40770  0.86730  Biso   1.000  C
  H111     1.0000 0.09680  0.36310  0.86380  Biso   1.000  H
  C102     1.0000 0.94150  0.36810  0.86740  Biso   1.000  C
  H112     1.0000 0.94610  0.33820  0.81440  Biso   1.000  H
  H113     1.0000 0.89330  0.39160  0.86440  Biso   1.000  H
  C103     1.0000 0.94560  0.32470  0.95290  Biso   1.000  C
  C104     1.0000 0.91710  0.34920  0.03420  Biso   1.000  C
  H114     1.0000 0.89140  0.39140  0.03420  Biso   1.000  H
  C105     1.0000 0.92490  0.31350  0.11560  Biso   1.000  C
  C106     1.0000 0.89460  0.34350  0.20560  Biso   1.000  C
  H115     1.0000 0.93080  0.37520  0.23100  Biso   1.000  H
  H116     1.0000 0.88550  0.30620  0.24780  Biso   1.000  H
  H117     1.0000 0.84850  0.36800  0.19420  Biso   1.000  H
  C107     1.0000 0.96400  0.24900  0.11410  Biso   1.000  C
  H118     1.0000 0.97110  0.22440  0.16800  Biso   1.000  H
  C108     1.0000 0.99170  0.22220  0.03270  Biso   1.000  C
  C109     1.0000 0.98270  0.25840  0.95310  Biso   1.000  C
  C110     1.0000 0.95760  0.19220  0.81960  Biso   1.000  C
  H119     1.0000 0.92300  0.22330  0.78870  Biso   1.000  H
  H120     1.0000 0.92900  0.16220  0.85990  Biso   1.000  H
  H121     1.0000 0.03540  0.11830  0.78170  Biso   1.000  H
  C111     1.0000 0.02720  0.14920  0.03500  Biso   1.000  C
  H122     1.0000 0.04220  0.13590  0.97390  Biso   1.000  H
  H123     1.0000 0.07180  0.15010  0.07290  Biso   1.000  H
  C112     1.0000 0.89800  0.09920  0.06700  Biso   1.000  C
  H124     1.0000 0.87130  0.13470  0.03850  Biso   1.000  H
  C113     1.0000 0.92480  0.00730  0.13980  Biso   1.000  C
  H125     1.0000 0.92020  0.96640  0.17340  Biso   1.000  H
  C114     1.0000 0.98980  0.03710  0.11610  Biso   1.000  C
  H126     1.0000 0.03760  0.01990  0.12820  Biso   1.000  H
  N25      1.0000 0.11700  0.46590  0.87300  Biso   1.000  N
  N26      1.0000 0.00320  0.42110  0.86710  Biso   1.000  N
  N27      1.0000 0.97340  0.09690  0.07140  Biso   1.000  N
  N28      1.0000 0.86650  0.04560  0.10760  Biso   1.000  N
  O7       1.0000 0.01140  0.23240  0.87160  Biso   1.000  O
  Cd8      1.0000 0.25713  0.03037  0.37102  Biso   1.000  Cd
  C115     1.0000 0.43460  0.98120  0.38000  Biso   1.000  C
  H127     1.0000 0.42310  0.93410  0.38700  Biso   1.000  H
  C116     1.0000 0.50520  0.00800  0.37530  Biso   1.000  C
  H128     1.0000 0.55020  0.98330  0.37720  Biso   1.000  H
  C117     1.0000 0.42360  0.09230  0.36730  Biso   1.000  C
  H129     1.0000 0.40320  0.13690  0.36380  Biso   1.000  H
  C118     1.0000 0.55850  0.13190  0.36740  Biso   1.000  C
  H130     1.0000 0.55390  0.16180  0.31440  Biso   1.000  H
  H131     1.0000 0.60670  0.10840  0.36440  Biso   1.000  H
  C119     1.0000 0.55440  0.17530  0.45290  Biso   1.000  C
  C120     1.0000 0.58290  0.15080  0.53420  Biso   1.000  C
  H132     1.0000 0.60860  0.10860  0.53420  Biso   1.000  H
  C121     1.0000 0.57510  0.18650  0.61560  Biso   1.000  C
  C122     1.0000 0.60540  0.15650  0.70560  Biso   1.000  C
  H133     1.0000 0.56920  0.12480  0.73100  Biso   1.000  H
  H134     1.0000 0.61450  0.19380  0.74780  Biso   1.000  H
  H135     1.0000 0.65150  0.13200  0.69420  Biso   1.000  H
  C123     1.0000 0.53600  0.25100  0.61410  Biso   1.000  C
  H136     1.0000 0.52890  0.27560  0.66800  Biso   1.000  H
  C124     1.0000 0.50830  0.27780  0.53270  Biso   1.000  C
  C125     1.0000 0.51730  0.24160  0.45310  Biso   1.000  C
  C126     1.0000 0.54240  0.30780  0.31960  Biso   1.000  C
  H137     1.0000 0.57700  0.27670  0.28870  Biso   1.000  H
  H138     1.0000 0.57100  0.33780  0.35990  Biso   1.000  H
  H139     1.0000 0.46460  0.38170  0.28170  Biso   1.000  H
  C127     1.0000 0.47280  0.35080  0.53500  Biso   1.000  C
  H140     1.0000 0.45780  0.36410  0.47390  Biso   1.000  H
  H141     1.0000 0.42820  0.34990  0.57290  Biso   1.000  H
  C128     1.0000 0.60200  0.40080  0.56700  Biso   1.000  C
  H142     1.0000 0.62870  0.36530  0.53850  Biso   1.000  H
  C129     1.0000 0.57520  0.49270  0.63980  Biso   1.000  C
  H143     1.0000 0.57980  0.53360  0.67340  Biso   1.000  H
  C130     1.0000 0.51020  0.46290  0.61610  Biso   1.000  C
  H144     1.0000 0.46240  0.48010  0.62820  Biso   1.000  H
  N29      1.0000 0.38300  0.03410  0.37300  Biso   1.000  N
  N30      1.0000 0.49680  0.07890  0.36710  Biso   1.000  N
  N31      1.0000 0.52660  0.40310  0.57140  Biso   1.000  N
  N32      1.0000 0.63350  0.45440  0.60760  Biso   1.000  N
  O8       1.0000 0.48860  0.26760  0.37160  Biso   1.000  O
  C131     1.0000 0.00000  0.14810  0.75000  Biso   1.000  C
  C132     1.0000 0.50000  0.35190  0.25000  Biso   1.000  C
