data_image0
_cell_length_a       14.877
_cell_length_b       16.998
_cell_length_c       16.095
_cell_angle_alpha    90
_cell_angle_beta     112.498
_cell_angle_gamma    90

_symmetry_space_group_name_H-M    "P 1"
_symmetry_int_tables_number       1

loop_
  _symmetry_equiv_pos_as_xyz
  'x, y, z'

loop_
  _atom_site_label
  _atom_site_occupancy
  _atom_site_fract_x
  _atom_site_fract_y
  _atom_site_fract_z
  _atom_site_thermal_displace_type
  _atom_site_B_iso_or_equiv
  _atom_site_type_symbol
  Cd1      1.0000 0.61809  0.19602  0.30127  Biso   1.000  Cd
  Cd2      1.0000 0.33358  0.22295  0.18731  Biso   1.000  Cd
  O1       1.0000 0.19270  0.27160  0.19860  Biso   1.000  O
  O2       1.0000 0.23220  0.33160  0.09850  Biso   1.000  O
  O3       1.0000 0.17300  0.61080  0.23470  Biso   1.000  O
  O4       1.0000 0.03290  0.62714  0.24670  Biso   1.000  O
  N1       1.0000 0.51870  0.27890  0.36040  Biso   1.000  N
  N2       1.0000 0.41970  0.28540  0.32550  Biso   1.000  N
  N3       1.0000 0.47540  0.34770  0.45390  Biso   1.000  N
  N4       1.0000 0.54290  0.26410  0.16540  Biso   1.000  N
  N5       1.0000 0.44270  0.27620  0.13050  Biso   1.000  N
  N6       1.0000 0.50360  0.33860  0.04480  Biso   1.000  N
  C1       1.0000 0.51360  0.53690  0.76000  Biso   1.000  C
  H1       1.0000 0.46150  0.57510  0.74510  Biso   1.000  H
  H2       1.0000 0.57480  0.56530  0.77960  Biso   1.000  H
  C2       1.0000 0.50200  0.48920  0.67750  Biso   1.000  C
  C3       1.0000 0.41480  0.48660  0.60390  Biso   1.000  C
  H3       1.0000 0.36260  0.51680  0.60340  Biso   1.000  H
  C4       1.0000 0.40460  0.43880  0.53000  Biso   1.000  C
  H4       1.0000 0.34530  0.43600  0.48130  Biso   1.000  H
  C5       1.0000 0.48270  0.39620  0.53020  Biso   1.000  C
  C6       1.0000 0.56990  0.39900  0.60310  Biso   1.000  C
  H5       1.0000 0.62240  0.36920  0.60340  Biso   1.000  H
  C7       1.0000 0.57930  0.44620  0.67600  Biso   1.000  C
  H6       1.0000 0.63870  0.44890  0.72450  Biso   1.000  H
  C8       1.0000 0.51190  0.48470  0.83620  Biso   1.000  C
  C9       1.0000 0.43130  0.44070  0.82620  Biso   1.000  C
  H7       1.0000 0.37720  0.44400  0.77250  Biso   1.000  H
  C10      1.0000 0.42740  0.39130  0.89360  Biso   1.000  C
  H8       1.0000 0.37240  0.36130  0.88530  Biso   1.000  H
  C11      1.0000 0.50860  0.38810  0.97410  Biso   1.000  C
  C12      1.0000 0.59010  0.43210  0.98680  Biso   1.000  C
  H9       1.0000 0.64350  0.43040  0.04110  Biso   1.000  H
  C13      1.0000 0.59130  0.47930  0.91680  Biso   1.000  C
  H10      1.0000 0.64700  0.50820  0.92440  Biso   1.000  H
  C14      1.0000 0.55060  0.31670  0.43660  Biso   1.000  C
  H11      1.0000 0.61580  0.32170  0.47400  Biso   1.000  H
  C15      1.0000 0.39530  0.32640  0.38180  Biso   1.000  C
  H12      1.0000 0.33180  0.33940  0.37380  Biso   1.000  H
  C16      1.0000 0.57730  0.30260  0.11310  Biso   1.000  C
  H13      1.0000 0.64270  0.30500  0.12140  Biso   1.000  H
  C17      1.0000 0.42160  0.32060  0.05920  Biso   1.000  C
  H14      1.0000 0.35930  0.33740  0.02330  Biso   1.000  H
  C18      1.0000 0.17710  0.32320  0.13910  Biso   1.000  C
  C19      1.0000 0.09220  0.38030  0.12240  Biso   1.000  C
  H15      1.0000 0.06110  0.39170  0.05860  Biso   1.000  H
  H16      1.0000 0.04430  0.35660  0.14190  Biso   1.000  H
  C20      1.0000 0.12940  0.45480  0.17330  Biso   1.000  C
  H17      1.0000 0.17470  0.47920  0.15100  Biso   1.000  H
  H18      1.0000 0.16480  0.44210  0.23620  Biso   1.000  H
  C21      1.0000 0.05100  0.51280  0.16630  Biso   1.000  C
  H19      1.0000 0.00530  0.48810  0.18790  Biso   1.000  H
  H20      1.0000 0.01600  0.52590  0.10340  Biso   1.000  H
  C22      1.0000 0.08790  0.58850  0.21870  Biso   1.000  C
  Cd3      1.0000 0.88191  0.69602  0.19873  Biso   1.000  Cd
  Cd4      1.0000 0.16642  0.72295  0.31269  Biso   1.000  Cd
  O5       1.0000 0.30730  0.77160  0.30140  Biso   1.000  O
  O6       1.0000 0.26780  0.83160  0.40150  Biso   1.000  O
  O7       1.0000 0.32700  0.11080  0.26530  Biso   1.000  O
  O8       1.0000 0.46710  0.12714  0.25330  Biso   1.000  O
  N7       1.0000 0.98130  0.77890  0.13960  Biso   1.000  N
  N8       1.0000 0.08030  0.78540  0.17450  Biso   1.000  N
  N9       1.0000 0.02460  0.84770  0.04610  Biso   1.000  N
  N10      1.0000 0.95710  0.76410  0.33460  Biso   1.000  N
  N11      1.0000 0.05730  0.77620  0.36950  Biso   1.000  N
  N12      1.0000 0.99640  0.83860  0.45520  Biso   1.000  N
  C23      1.0000 0.98640  0.03690  0.74000  Biso   1.000  C
  H21      1.0000 0.03850  0.07510  0.75490  Biso   1.000  H
  H22      1.0000 0.92520  0.06530  0.72040  Biso   1.000  H
  C24      1.0000 0.99800  0.98920  0.82250  Biso   1.000  C
  C25      1.0000 0.08520  0.98660  0.89610  Biso   1.000  C
  H23      1.0000 0.13740  0.01680  0.89660  Biso   1.000  H
  C26      1.0000 0.09540  0.93880  0.97000  Biso   1.000  C
  H24      1.0000 0.15470  0.93600  0.01870  Biso   1.000  H
  C27      1.0000 0.01730  0.89620  0.96980  Biso   1.000  C
  C28      1.0000 0.93010  0.89900  0.89690  Biso   1.000  C
  H25      1.0000 0.87760  0.86920  0.89660  Biso   1.000  H
  C29      1.0000 0.92070  0.94620  0.82400  Biso   1.000  C
  H26      1.0000 0.86130  0.94890  0.77550  Biso   1.000  H
  C30      1.0000 0.98810  0.98470  0.66380  Biso   1.000  C
  C31      1.0000 0.06870  0.94070  0.67380  Biso   1.000  C
  H27      1.0000 0.12280  0.94400  0.72750  Biso   1.000  H
  C32      1.0000 0.07260  0.89130  0.60640  Biso   1.000  C
  H28      1.0000 0.12760  0.86130  0.61470  Biso   1.000  H
  C33      1.0000 0.99140  0.88810  0.52590  Biso   1.000  C
  C34      1.0000 0.90990  0.93210  0.51320  Biso   1.000  C
  H29      1.0000 0.85650  0.93040  0.45890  Biso   1.000  H
  C35      1.0000 0.90870  0.97930  0.58320  Biso   1.000  C
  H30      1.0000 0.85300  0.00820  0.57560  Biso   1.000  H
  C36      1.0000 0.94940  0.81670  0.06340  Biso   1.000  C
  H31      1.0000 0.88420  0.82170  0.02600  Biso   1.000  H
  C37      1.0000 0.10470  0.82640  0.11820  Biso   1.000  C
  H32      1.0000 0.16820  0.83940  0.12620  Biso   1.000  H
  C38      1.0000 0.92270  0.80260  0.38690  Biso   1.000  C
  H33      1.0000 0.85730  0.80500  0.37860  Biso   1.000  H
  C39      1.0000 0.07840  0.82060  0.44080  Biso   1.000  C
  H34      1.0000 0.14070  0.83740  0.47670  Biso   1.000  H
  C40      1.0000 0.32290  0.82320  0.36090  Biso   1.000  C
  C41      1.0000 0.40780  0.88030  0.37760  Biso   1.000  C
  H35      1.0000 0.43890  0.89170  0.44140  Biso   1.000  H
  H36      1.0000 0.45570  0.85660  0.35810  Biso   1.000  H
  C42      1.0000 0.37060  0.95480  0.32670  Biso   1.000  C
  H37      1.0000 0.32530  0.97920  0.34900  Biso   1.000  H
  H38      1.0000 0.33520  0.94210  0.26380  Biso   1.000  H
  C43      1.0000 0.44900  0.01280  0.33370  Biso   1.000  C
  H39      1.0000 0.49470  0.98810  0.31210  Biso   1.000  H
  H40      1.0000 0.48400  0.02590  0.39660  Biso   1.000  H
  C44      1.0000 0.41210  0.08850  0.28130  Biso   1.000  C
  Cd5      1.0000 0.38191  0.80398  0.69873  Biso   1.000  Cd
  Cd6      1.0000 0.66642  0.77705  0.81269  Biso   1.000  Cd
  O9       1.0000 0.80730  0.72840  0.80140  Biso   1.000  O
  O10      1.0000 0.76780  0.66840  0.90150  Biso   1.000  O
  O11      1.0000 0.82700  0.38920  0.76530  Biso   1.000  O
  O12      1.0000 0.96710  0.37286  0.75330  Biso   1.000  O
  N13      1.0000 0.48130  0.72110  0.63960  Biso   1.000  N
  N14      1.0000 0.58030  0.71460  0.67450  Biso   1.000  N
  N15      1.0000 0.52460  0.65230  0.54610  Biso   1.000  N
  N16      1.0000 0.45710  0.73590  0.83460  Biso   1.000  N
  N17      1.0000 0.55730  0.72380  0.86950  Biso   1.000  N
  N18      1.0000 0.49640  0.66140  0.95520  Biso   1.000  N
  C45      1.0000 0.48640  0.46310  0.24000  Biso   1.000  C
  H41      1.0000 0.53850  0.42490  0.25490  Biso   1.000  H
  H42      1.0000 0.42520  0.43470  0.22040  Biso   1.000  H
  C46      1.0000 0.49800  0.51080  0.32250  Biso   1.000  C
  C47      1.0000 0.58520  0.51340  0.39610  Biso   1.000  C
  H43      1.0000 0.63740  0.48320  0.39660  Biso   1.000  H
  C48      1.0000 0.59540  0.56120  0.47000  Biso   1.000  C
  H44      1.0000 0.65470  0.56400  0.51870  Biso   1.000  H
  C49      1.0000 0.51730  0.60380  0.46980  Biso   1.000  C
  C50      1.0000 0.43010  0.60100  0.39690  Biso   1.000  C
  H45      1.0000 0.37760  0.63080  0.39660  Biso   1.000  H
  C51      1.0000 0.42070  0.55380  0.32400  Biso   1.000  C
  H46      1.0000 0.36130  0.55110  0.27550  Biso   1.000  H
  C52      1.0000 0.48810  0.51530  0.16380  Biso   1.000  C
  C53      1.0000 0.56870  0.55930  0.17380  Biso   1.000  C
  H47      1.0000 0.62280  0.55600  0.22750  Biso   1.000  H
  C54      1.0000 0.57260  0.60870  0.10640  Biso   1.000  C
  H48      1.0000 0.62760  0.63870  0.11470  Biso   1.000  H
  C55      1.0000 0.49140  0.61190  0.02590  Biso   1.000  C
  C56      1.0000 0.40990  0.56790  0.01320  Biso   1.000  C
  H49      1.0000 0.35650  0.56960  0.95890  Biso   1.000  H
  C57      1.0000 0.40870  0.52070  0.08320  Biso   1.000  C
  H50      1.0000 0.35300  0.49180  0.07560  Biso   1.000  H
  C58      1.0000 0.44940  0.68330  0.56340  Biso   1.000  C
  H51      1.0000 0.38420  0.67830  0.52600  Biso   1.000  H
  C59      1.0000 0.60470  0.67360  0.61820  Biso   1.000  C
  H52      1.0000 0.66820  0.66060  0.62620  Biso   1.000  H
  C60      1.0000 0.42270  0.69740  0.88690  Biso   1.000  C
  H53      1.0000 0.35730  0.69500  0.87860  Biso   1.000  H
  C61      1.0000 0.57840  0.67940  0.94080  Biso   1.000  C
  H54      1.0000 0.64070  0.66260  0.97670  Biso   1.000  H
  C62      1.0000 0.82290  0.67680  0.86090  Biso   1.000  C
  C63      1.0000 0.90780  0.61970  0.87760  Biso   1.000  C
  H55      1.0000 0.93890  0.60830  0.94140  Biso   1.000  H
  H56      1.0000 0.95570  0.64340  0.85810  Biso   1.000  H
  C64      1.0000 0.87060  0.54520  0.82670  Biso   1.000  C
  H57      1.0000 0.82530  0.52080  0.84900  Biso   1.000  H
  H58      1.0000 0.83520  0.55790  0.76380  Biso   1.000  H
  C65      1.0000 0.94900  0.48720  0.83370  Biso   1.000  C
  H59      1.0000 0.99470  0.51190  0.81210  Biso   1.000  H
  H60      1.0000 0.98400  0.47410  0.89660  Biso   1.000  H
  C66      1.0000 0.91210  0.41150  0.78130  Biso   1.000  C
  Cd7      1.0000 0.11809  0.30398  0.80127  Biso   1.000  Cd
  Cd8      1.0000 0.83358  0.27705  0.68731  Biso   1.000  Cd
  O13      1.0000 0.69270  0.22840  0.69860  Biso   1.000  O
  O14      1.0000 0.73220  0.16840  0.59850  Biso   1.000  O
  O15      1.0000 0.67300  0.88920  0.73470  Biso   1.000  O
  O16      1.0000 0.53290  0.87286  0.74670  Biso   1.000  O
  N19      1.0000 0.01870  0.22110  0.86040  Biso   1.000  N
  N20      1.0000 0.91970  0.21460  0.82550  Biso   1.000  N
  N21      1.0000 0.97540  0.15230  0.95390  Biso   1.000  N
  N22      1.0000 0.04290  0.23590  0.66540  Biso   1.000  N
  N23      1.0000 0.94270  0.22380  0.63050  Biso   1.000  N
  N24      1.0000 0.00360  0.16140  0.54480  Biso   1.000  N
  C67      1.0000 0.01360  0.96310  0.26000  Biso   1.000  C
  H61      1.0000 0.96150  0.92490  0.24510  Biso   1.000  H
  H62      1.0000 0.07480  0.93470  0.27960  Biso   1.000  H
  C68      1.0000 0.00200  0.01080  0.17750  Biso   1.000  C
  C69      1.0000 0.91480  0.01340  0.10390  Biso   1.000  C
  H63      1.0000 0.86260  0.98320  0.10340  Biso   1.000  H
  C70      1.0000 0.90460  0.06120  0.03000  Biso   1.000  C
  H64      1.0000 0.84530  0.06400  0.98130  Biso   1.000  H
  C71      1.0000 0.98270  0.10380  0.03020  Biso   1.000  C
  C72      1.0000 0.06990  0.10100  0.10310  Biso   1.000  C
  H65      1.0000 0.12240  0.13080  0.10340  Biso   1.000  H
  C73      1.0000 0.07930  0.05380  0.17600  Biso   1.000  C
  H66      1.0000 0.13870  0.05110  0.22450  Biso   1.000  H
  C74      1.0000 0.01190  0.01530  0.33620  Biso   1.000  C
  C75      1.0000 0.93130  0.05930  0.32620  Biso   1.000  C
  H67      1.0000 0.87720  0.05600  0.27250  Biso   1.000  H
  C76      1.0000 0.92740  0.10870  0.39360  Biso   1.000  C
  H68      1.0000 0.87240  0.13870  0.38530  Biso   1.000  H
  C77      1.0000 0.00860  0.11190  0.47410  Biso   1.000  C
  C78      1.0000 0.09010  0.06790  0.48680  Biso   1.000  C
  H69      1.0000 0.14350  0.06960  0.54110  Biso   1.000  H
  C79      1.0000 0.09130  0.02070  0.41680  Biso   1.000  C
  H70      1.0000 0.14700  0.99180  0.42440  Biso   1.000  H
  C80      1.0000 0.05060  0.18330  0.93660  Biso   1.000  C
  H71      1.0000 0.11580  0.17830  0.97400  Biso   1.000  H
  C81      1.0000 0.89530  0.17360  0.88180  Biso   1.000  C
  H72      1.0000 0.83180  0.16060  0.87380  Biso   1.000  H
  C82      1.0000 0.07730  0.19740  0.61310  Biso   1.000  C
  H73      1.0000 0.14270  0.19500  0.62140  Biso   1.000  H
  C83      1.0000 0.92160  0.17940  0.55920  Biso   1.000  C
  H74      1.0000 0.85930  0.16260  0.52330  Biso   1.000  H
  C84      1.0000 0.67710  0.17680  0.63910  Biso   1.000  C
  C85      1.0000 0.59220  0.11970  0.62240  Biso   1.000  C
  H75      1.0000 0.56110  0.10830  0.55860  Biso   1.000  H
  H76      1.0000 0.54430  0.14340  0.64190  Biso   1.000  H
  C86      1.0000 0.62940  0.04520  0.67330  Biso   1.000  C
  H77      1.0000 0.67470  0.02080  0.65100  Biso   1.000  H
  H78      1.0000 0.66480  0.05790  0.73620  Biso   1.000  H
  C87      1.0000 0.55100  0.98720  0.66630  Biso   1.000  C
  H79      1.0000 0.50530  0.01190  0.68790  Biso   1.000  H
  H80      1.0000 0.51600  0.97410  0.60340  Biso   1.000  H
  C88      1.0000 0.58790  0.91150  0.71870  Biso   1.000  C
