data_image0
_cell_length_a       17.5859
_cell_length_b       11.447
_cell_length_c       21.6831
_cell_angle_alpha    90
_cell_angle_beta     114.472
_cell_angle_gamma    90

_symmetry_space_group_name_H-M    "P 1"
_symmetry_int_tables_number       1

loop_
  _symmetry_equiv_pos_as_xyz
  'x, y, z'

loop_
  _atom_site_label
  _atom_site_occupancy
  _atom_site_fract_x
  _atom_site_fract_y
  _atom_site_fract_z
  _atom_site_thermal_displace_type
  _atom_site_B_iso_or_equiv
  _atom_site_type_symbol
  Cu1      1.0000 0.50835  0.67468  0.75466  Biso   1.000  Cu
  N1       1.0000 0.25190  0.66970  0.69150  Biso   1.000  N
  N2       1.0000 0.38530  0.65770  0.70940  Biso   1.000  N
  N3       1.0000 0.76230  0.72230  0.80660  Biso   1.000  N
  N4       1.0000 0.63230  0.70200  0.79790  Biso   1.000  N
  O1       1.0000 0.52620  0.51930  0.72020  Biso   1.000  O
  O2       1.0000 0.51160  0.32730  0.71060  Biso   1.000  O
  C1       1.0000 0.50270  0.42130  0.73540  Biso   1.000  C
  H1       1.0000 0.47820  0.42080  0.76600  Biso   1.000  H
  C2       1.0000 0.33310  0.69560  0.73220  Biso   1.000  C
  H2       1.0000 0.34910  0.73680  0.77260  Biso   1.000  H
  C3       1.0000 0.25780  0.60700  0.63890  Biso   1.000  C
  H3       1.0000 0.21370  0.57310  0.60260  Biso   1.000  H
  C4       1.0000 0.33860  0.60410  0.64980  Biso   1.000  C
  H4       1.0000 0.35950  0.57060  0.62090  Biso   1.000  H
  C5       1.0000 0.18260  0.69010  0.70510  Biso   1.000  C
  C6       1.0000 0.10880  0.61980  0.67030  Biso   1.000  C
  H5       1.0000 0.10690  0.56620  0.63750  Biso   1.000  H
  C7       1.0000 0.04070  0.63330  0.68660  Biso   1.000  C
  H6       1.0000 0.99360  0.58790  0.66320  Biso   1.000  H
  C8       1.0000 0.03800  0.71130  0.73610  Biso   1.000  C
  C9       1.0000 0.11120  0.78240  0.76690  Biso   1.000  C
  H7       1.0000 0.11280  0.83890  0.79830  Biso   1.000  H
  C10      1.0000 0.17830  0.76980  0.75170  Biso   1.000  C
  H8       1.0000 0.22430  0.81770  0.77400  Biso   1.000  H
  C11      1.0000 0.68480  0.68070  0.77180  Biso   1.000  C
  H9       1.0000 0.66990  0.63940  0.73150  Biso   1.000  H
  C12      1.0000 0.67580  0.76310  0.85500  Biso   1.000  C
  H10      1.0000 0.65480  0.79180  0.88500  Biso   1.000  H
  C13      1.0000 0.75370  0.77500  0.86100  Biso   1.000  C
  H11      1.0000 0.79630  0.81300  0.89650  Biso   1.000  H
  C14      1.0000 0.82870  0.71580  0.78890  Biso   1.000  C
  C15      1.0000 0.82770  0.65260  0.73550  Biso   1.000  C
  H12      1.0000 0.78040  0.60930  0.70970  Biso   1.000  H
  C16      1.0000 0.89360  0.65150  0.71910  Biso   1.000  C
  H13      1.0000 0.89020  0.60450  0.68310  Biso   1.000  H
  C17      1.0000 0.96770  0.71660  0.75290  Biso   1.000  C
  C18      1.0000 0.96840  0.77930  0.80760  Biso   1.000  C
  H14      1.0000 0.01590  0.82250  0.83300  Biso   1.000  H
  C19      1.0000 0.90300  0.78130  0.82650  Biso   1.000  C
  H15      1.0000 0.90690  0.82520  0.86380  Biso   1.000  H
  Cu2      1.0000 0.49165  0.17468  0.74534  Biso   1.000  Cu
  N5       1.0000 0.74810  0.16970  0.80850  Biso   1.000  N
  N6       1.0000 0.61470  0.15770  0.79060  Biso   1.000  N
  N7       1.0000 0.23770  0.22230  0.69340  Biso   1.000  N
  N8       1.0000 0.36770  0.20200  0.70210  Biso   1.000  N
  O3       1.0000 0.47380  0.01930  0.77980  Biso   1.000  O
  O4       1.0000 0.48840  0.82730  0.78940  Biso   1.000  O
  C20      1.0000 0.49730  0.92130  0.76460  Biso   1.000  C
  H16      1.0000 0.52180  0.92080  0.73400  Biso   1.000  H
  C21      1.0000 0.66690  0.19560  0.76780  Biso   1.000  C
  H17      1.0000 0.65090  0.23680  0.72740  Biso   1.000  H
  C22      1.0000 0.74220  0.10700  0.86110  Biso   1.000  C
  H18      1.0000 0.78630  0.07310  0.89740  Biso   1.000  H
  C23      1.0000 0.66140  0.10410  0.85020  Biso   1.000  C
  H19      1.0000 0.64050  0.07060  0.87910  Biso   1.000  H
  C24      1.0000 0.81740  0.19010  0.79490  Biso   1.000  C
  C25      1.0000 0.89120  0.11980  0.82970  Biso   1.000  C
  H20      1.0000 0.89310  0.06620  0.86250  Biso   1.000  H
  C26      1.0000 0.95930  0.13330  0.81340  Biso   1.000  C
  H21      1.0000 0.00640  0.08790  0.83680  Biso   1.000  H
  C27      1.0000 0.96200  0.21130  0.76390  Biso   1.000  C
  C28      1.0000 0.88880  0.28240  0.73310  Biso   1.000  C
  H22      1.0000 0.88720  0.33890  0.70170  Biso   1.000  H
  C29      1.0000 0.82170  0.26980  0.74830  Biso   1.000  C
  H23      1.0000 0.77570  0.31770  0.72600  Biso   1.000  H
  C30      1.0000 0.31520  0.18070  0.72820  Biso   1.000  C
  H24      1.0000 0.33010  0.13940  0.76850  Biso   1.000  H
  C31      1.0000 0.32420  0.26310  0.64500  Biso   1.000  C
  H25      1.0000 0.34520  0.29180  0.61500  Biso   1.000  H
  C32      1.0000 0.24630  0.27500  0.63900  Biso   1.000  C
  H26      1.0000 0.20370  0.31300  0.60350  Biso   1.000  H
  C33      1.0000 0.17130  0.21580  0.71110  Biso   1.000  C
  C34      1.0000 0.17230  0.15260  0.76450  Biso   1.000  C
  H27      1.0000 0.21960  0.10930  0.79030  Biso   1.000  H
  C35      1.0000 0.10640  0.15150  0.78090  Biso   1.000  C
  H28      1.0000 0.10980  0.10450  0.81690  Biso   1.000  H
  C36      1.0000 0.03230  0.21660  0.74710  Biso   1.000  C
  C37      1.0000 0.03160  0.27930  0.69240  Biso   1.000  C
  H29      1.0000 0.98410  0.32250  0.66700  Biso   1.000  H
  C38      1.0000 0.09700  0.28130  0.67350  Biso   1.000  C
  H30      1.0000 0.09310  0.32520  0.63620  Biso   1.000  H
  Cu3      1.0000 0.49165  0.32532  0.24534  Biso   1.000  Cu
  N9       1.0000 0.74810  0.33030  0.30850  Biso   1.000  N
  N10      1.0000 0.61470  0.34230  0.29060  Biso   1.000  N
  N11      1.0000 0.23770  0.27770  0.19340  Biso   1.000  N
  N12      1.0000 0.36770  0.29800  0.20210  Biso   1.000  N
  O5       1.0000 0.47380  0.48070  0.27980  Biso   1.000  O
  O6       1.0000 0.48840  0.67270  0.28940  Biso   1.000  O
  C39      1.0000 0.49730  0.57870  0.26460  Biso   1.000  C
  H31      1.0000 0.52180  0.57920  0.23400  Biso   1.000  H
  C40      1.0000 0.66690  0.30440  0.26780  Biso   1.000  C
  H32      1.0000 0.65090  0.26320  0.22740  Biso   1.000  H
  C41      1.0000 0.74220  0.39300  0.36110  Biso   1.000  C
  H33      1.0000 0.78630  0.42690  0.39740  Biso   1.000  H
  C42      1.0000 0.66140  0.39590  0.35020  Biso   1.000  C
  H34      1.0000 0.64050  0.42940  0.37910  Biso   1.000  H
  C43      1.0000 0.81740  0.30990  0.29490  Biso   1.000  C
  C44      1.0000 0.89120  0.38020  0.32970  Biso   1.000  C
  H35      1.0000 0.89310  0.43380  0.36250  Biso   1.000  H
  C45      1.0000 0.95930  0.36670  0.31340  Biso   1.000  C
  H36      1.0000 0.00640  0.41210  0.33680  Biso   1.000  H
  C46      1.0000 0.96200  0.28870  0.26390  Biso   1.000  C
  C47      1.0000 0.88880  0.21760  0.23310  Biso   1.000  C
  H37      1.0000 0.88720  0.16110  0.20170  Biso   1.000  H
  C48      1.0000 0.82170  0.23020  0.24830  Biso   1.000  C
  H38      1.0000 0.77570  0.18230  0.22600  Biso   1.000  H
  C49      1.0000 0.31520  0.31930  0.22820  Biso   1.000  C
  H39      1.0000 0.33010  0.36060  0.26850  Biso   1.000  H
  C50      1.0000 0.32420  0.23690  0.14500  Biso   1.000  C
  H40      1.0000 0.34520  0.20820  0.11500  Biso   1.000  H
  C51      1.0000 0.24630  0.22500  0.13900  Biso   1.000  C
  H41      1.0000 0.20370  0.18700  0.10350  Biso   1.000  H
  C52      1.0000 0.17130  0.28420  0.21110  Biso   1.000  C
  C53      1.0000 0.17230  0.34740  0.26450  Biso   1.000  C
  H42      1.0000 0.21960  0.39070  0.29030  Biso   1.000  H
  C54      1.0000 0.10640  0.34850  0.28090  Biso   1.000  C
  H43      1.0000 0.10980  0.39550  0.31690  Biso   1.000  H
  C55      1.0000 0.03230  0.28340  0.24710  Biso   1.000  C
  C56      1.0000 0.03160  0.22070  0.19240  Biso   1.000  C
  H44      1.0000 0.98410  0.17750  0.16700  Biso   1.000  H
  C57      1.0000 0.09700  0.21870  0.17350  Biso   1.000  C
  H45      1.0000 0.09310  0.17480  0.13620  Biso   1.000  H
  Cu4      1.0000 0.50835  0.82532  0.25466  Biso   1.000  Cu
  N13      1.0000 0.25190  0.83030  0.19150  Biso   1.000  N
  N14      1.0000 0.38530  0.84230  0.20940  Biso   1.000  N
  N15      1.0000 0.76230  0.77770  0.30660  Biso   1.000  N
  N16      1.0000 0.63230  0.79800  0.29790  Biso   1.000  N
  O7       1.0000 0.52620  0.98070  0.22020  Biso   1.000  O
  O8       1.0000 0.51160  0.17270  0.21060  Biso   1.000  O
  C58      1.0000 0.50270  0.07870  0.23540  Biso   1.000  C
  H46      1.0000 0.47820  0.07920  0.26600  Biso   1.000  H
  C59      1.0000 0.33310  0.80440  0.23220  Biso   1.000  C
  H47      1.0000 0.34910  0.76320  0.27260  Biso   1.000  H
  C60      1.0000 0.25780  0.89300  0.13890  Biso   1.000  C
  H48      1.0000 0.21370  0.92690  0.10260  Biso   1.000  H
  C61      1.0000 0.33860  0.89590  0.14980  Biso   1.000  C
  H49      1.0000 0.35950  0.92940  0.12090  Biso   1.000  H
  C62      1.0000 0.18260  0.80990  0.20510  Biso   1.000  C
  C63      1.0000 0.10880  0.88020  0.17030  Biso   1.000  C
  H50      1.0000 0.10690  0.93380  0.13750  Biso   1.000  H
  C64      1.0000 0.04070  0.86670  0.18660  Biso   1.000  C
  H51      1.0000 0.99360  0.91210  0.16320  Biso   1.000  H
  C65      1.0000 0.03800  0.78870  0.23610  Biso   1.000  C
  C66      1.0000 0.11120  0.71760  0.26690  Biso   1.000  C
  H52      1.0000 0.11280  0.66110  0.29830  Biso   1.000  H
  C67      1.0000 0.17830  0.73020  0.25170  Biso   1.000  C
  H53      1.0000 0.22430  0.68230  0.27400  Biso   1.000  H
  C68      1.0000 0.68480  0.81930  0.27180  Biso   1.000  C
  H54      1.0000 0.66990  0.86060  0.23150  Biso   1.000  H
  C69      1.0000 0.67580  0.73690  0.35500  Biso   1.000  C
  H55      1.0000 0.65480  0.70820  0.38500  Biso   1.000  H
  C70      1.0000 0.75370  0.72500  0.36100  Biso   1.000  C
  H56      1.0000 0.79630  0.68700  0.39650  Biso   1.000  H
  C71      1.0000 0.82870  0.78420  0.28890  Biso   1.000  C
  C72      1.0000 0.82770  0.84740  0.23550  Biso   1.000  C
  H57      1.0000 0.78040  0.89070  0.20970  Biso   1.000  H
  C73      1.0000 0.89360  0.84850  0.21910  Biso   1.000  C
  H58      1.0000 0.89020  0.89550  0.18310  Biso   1.000  H
  C74      1.0000 0.96770  0.78340  0.25290  Biso   1.000  C
  C75      1.0000 0.96840  0.72070  0.30760  Biso   1.000  C
  H59      1.0000 0.01590  0.67750  0.33300  Biso   1.000  H
  C76      1.0000 0.90300  0.71870  0.32650  Biso   1.000  C
  H60      1.0000 0.90690  0.67480  0.36380  Biso   1.000  H
