data_image0
_cell_length_a       12.661
_cell_length_b       22.238
_cell_length_c       12.953
_cell_angle_alpha    90
_cell_angle_beta     111.829
_cell_angle_gamma    90

_symmetry_space_group_name_H-M    "P 1"
_symmetry_int_tables_number       1

loop_
  _symmetry_equiv_pos_as_xyz
  'x, y, z'

loop_
  _atom_site_label
  _atom_site_occupancy
  _atom_site_fract_x
  _atom_site_fract_y
  _atom_site_fract_z
  _atom_site_thermal_displace_type
  _atom_site_B_iso_or_equiv
  _atom_site_type_symbol
  Ag1      1.0000 0.62740  0.05378  0.85510  Biso   1.000  Ag
  Ag2      1.0000 0.92246  0.07003  0.93808  Biso   1.000  Ag
  Ag3      1.0000 0.79820  0.79489  0.83920  Biso   1.000  Ag
  C1       1.0000 0.41870  0.85610  0.76580  Biso   1.000  C
  H1       1.0000 0.34450  0.86990  0.74640  Biso   1.000  H
  C2       1.0000 0.50960  0.89680  0.79130  Biso   1.000  C
  H2       1.0000 0.49730  0.93810  0.78820  Biso   1.000  H
  C3       1.0000 0.44020  0.79780  0.76970  Biso   1.000  C
  H3       1.0000 0.38030  0.77060  0.75250  Biso   1.000  H
  C4       1.0000 0.34400  0.27400  0.59600  Biso   1.000  C
  H4       1.0000 0.27560  0.29330  0.55550  Biso   1.000  H
  C5       1.0000 0.55030  0.77640  0.79910  Biso   1.000  C
  H5       1.0000 0.56430  0.73530  0.80420  Biso   1.000  H
  C6       1.0000 0.44520  0.19510  0.71180  Biso   1.000  C
  H6       1.0000 0.44840  0.16010  0.75230  Biso   1.000  H
  C7       1.0000 0.34500  0.21910  0.65600  Biso   1.000  C
  H7       1.0000 0.27770  0.20160  0.65560  Biso   1.000  H
  C8       1.0000 0.54510  0.21920  0.71260  Biso   1.000  C
  C9       1.0000 0.71960  0.91100  0.86100  Biso   1.000  C
  C10      1.0000 0.61710  0.87350  0.82100  Biso   1.000  C
  C11      1.0000 0.44430  0.29660  0.60100  Biso   1.000  C
  H8       1.0000 0.44360  0.33190  0.56240  Biso   1.000  H
  C12      1.0000 0.65570  0.19520  0.76700  Biso   1.000  C
  N1       1.0000 0.73180  0.96930  0.86970  Biso   1.000  N
  N2       1.0000 0.82080  0.88250  0.89810  Biso   1.000  N
  N3       1.0000 0.84680  0.97660  0.91860  Biso   1.000  N
  N4       1.0000 0.89760  0.92690  0.93010  Biso   1.000  N
  N5       1.0000 0.63550  0.81500  0.81970  Biso   1.000  N
  N6       1.0000 0.69320  0.14530  0.83190  Biso   1.000  N
  N7       1.0000 0.74510  0.22470  0.76230  Biso   1.000  N
  N8       1.0000 0.83780  0.19310  0.81940  Biso   1.000  N
  N9       1.0000 0.80690  0.14590  0.85710  Biso   1.000  N
  N10      1.0000 0.54710  0.27070  0.65900  Biso   1.000  N
  Ag4      1.0000 0.87260  0.55378  0.64490  Biso   1.000  Ag
  Ag5      1.0000 0.57754  0.57003  0.56192  Biso   1.000  Ag
  Ag6      1.0000 0.70180  0.29489  0.66080  Biso   1.000  Ag
  C13      1.0000 0.08130  0.35610  0.73420  Biso   1.000  C
  H9       1.0000 0.15550  0.36990  0.75360  Biso   1.000  H
  C14      1.0000 0.99040  0.39680  0.70870  Biso   1.000  C
  H10      1.0000 0.00270  0.43810  0.71180  Biso   1.000  H
  C15      1.0000 0.05980  0.29780  0.73030  Biso   1.000  C
  H11      1.0000 0.11970  0.27060  0.74750  Biso   1.000  H
  C16      1.0000 0.15600  0.77400  0.90400  Biso   1.000  C
  H12      1.0000 0.22440  0.79330  0.94450  Biso   1.000  H
  C17      1.0000 0.94970  0.27640  0.70090  Biso   1.000  C
  H13      1.0000 0.93570  0.23530  0.69580  Biso   1.000  H
  C18      1.0000 0.05480  0.69510  0.78820  Biso   1.000  C
  H14      1.0000 0.05160  0.66010  0.74770  Biso   1.000  H
  C19      1.0000 0.15500  0.71910  0.84400  Biso   1.000  C
  H15      1.0000 0.22230  0.70160  0.84440  Biso   1.000  H
  C20      1.0000 0.95490  0.71920  0.78740  Biso   1.000  C
  C21      1.0000 0.78040  0.41100  0.63900  Biso   1.000  C
  C22      1.0000 0.88290  0.37350  0.67900  Biso   1.000  C
  C23      1.0000 0.05570  0.79660  0.89900  Biso   1.000  C
  H16      1.0000 0.05640  0.83190  0.93760  Biso   1.000  H
  C24      1.0000 0.84430  0.69520  0.73300  Biso   1.000  C
  N11      1.0000 0.76820  0.46930  0.63030  Biso   1.000  N
  N12      1.0000 0.67920  0.38250  0.60190  Biso   1.000  N
  N13      1.0000 0.65320  0.47660  0.58140  Biso   1.000  N
  N14      1.0000 0.60240  0.42690  0.56990  Biso   1.000  N
  N15      1.0000 0.86450  0.31500  0.68030  Biso   1.000  N
  N16      1.0000 0.80680  0.64530  0.66810  Biso   1.000  N
  N17      1.0000 0.75490  0.72470  0.73770  Biso   1.000  N
  N18      1.0000 0.66220  0.69310  0.68060  Biso   1.000  N
  N19      1.0000 0.69310  0.64590  0.64290  Biso   1.000  N
  N20      1.0000 0.95290  0.77070  0.84100  Biso   1.000  N
  Ag7      1.0000 0.37260  0.94622  0.14490  Biso   1.000  Ag
  Ag8      1.0000 0.07754  0.92997  0.06192  Biso   1.000  Ag
  Ag9      1.0000 0.20180  0.20511  0.16080  Biso   1.000  Ag
  C25      1.0000 0.58130  0.14390  0.23420  Biso   1.000  C
  H17      1.0000 0.65550  0.13010  0.25360  Biso   1.000  H
  C26      1.0000 0.49040  0.10320  0.20870  Biso   1.000  C
  H18      1.0000 0.50270  0.06190  0.21180  Biso   1.000  H
  C27      1.0000 0.55980  0.20220  0.23030  Biso   1.000  C
  H19      1.0000 0.61970  0.22940  0.24750  Biso   1.000  H
  C28      1.0000 0.65600  0.72600  0.40400  Biso   1.000  C
  H20      1.0000 0.72440  0.70670  0.44450  Biso   1.000  H
  C29      1.0000 0.44970  0.22360  0.20090  Biso   1.000  C
  H21      1.0000 0.43570  0.26470  0.19580  Biso   1.000  H
  C30      1.0000 0.55480  0.80490  0.28820  Biso   1.000  C
  H22      1.0000 0.55160  0.83990  0.24770  Biso   1.000  H
  C31      1.0000 0.65500  0.78090  0.34400  Biso   1.000  C
  H23      1.0000 0.72230  0.79840  0.34440  Biso   1.000  H
  C32      1.0000 0.45490  0.78080  0.28740  Biso   1.000  C
  C33      1.0000 0.28040  0.08900  0.13900  Biso   1.000  C
  C34      1.0000 0.38290  0.12650  0.17900  Biso   1.000  C
  C35      1.0000 0.55570  0.70340  0.39900  Biso   1.000  C
  H24      1.0000 0.55640  0.66810  0.43760  Biso   1.000  H
  C36      1.0000 0.34430  0.80480  0.23300  Biso   1.000  C
  N21      1.0000 0.26820  0.03070  0.13030  Biso   1.000  N
  N22      1.0000 0.17920  0.11750  0.10190  Biso   1.000  N
  N23      1.0000 0.15320  0.02340  0.08140  Biso   1.000  N
  N24      1.0000 0.10240  0.07310  0.06990  Biso   1.000  N
  N25      1.0000 0.36450  0.18500  0.18030  Biso   1.000  N
  N26      1.0000 0.30680  0.85470  0.16810  Biso   1.000  N
  N27      1.0000 0.25490  0.77530  0.23770  Biso   1.000  N
  N28      1.0000 0.16220  0.80690  0.18060  Biso   1.000  N
  N29      1.0000 0.19310  0.85410  0.14290  Biso   1.000  N
  N30      1.0000 0.45290  0.72930  0.34100  Biso   1.000  N
  Ag10     1.0000 0.12740  0.44622  0.35510  Biso   1.000  Ag
  Ag11     1.0000 0.42246  0.42997  0.43808  Biso   1.000  Ag
  Ag12     1.0000 0.29820  0.70511  0.33920  Biso   1.000  Ag
  C37      1.0000 0.91870  0.64390  0.26580  Biso   1.000  C
  H25      1.0000 0.84450  0.63010  0.24640  Biso   1.000  H
  C38      1.0000 0.00960  0.60320  0.29130  Biso   1.000  C
  H26      1.0000 0.99730  0.56190  0.28820  Biso   1.000  H
  C39      1.0000 0.94020  0.70220  0.26970  Biso   1.000  C
  H27      1.0000 0.88030  0.72940  0.25250  Biso   1.000  H
  C40      1.0000 0.84400  0.22600  0.09600  Biso   1.000  C
  H28      1.0000 0.77560  0.20670  0.05550  Biso   1.000  H
  C41      1.0000 0.05030  0.72360  0.29910  Biso   1.000  C
  H29      1.0000 0.06430  0.76470  0.30420  Biso   1.000  H
  C42      1.0000 0.94520  0.30490  0.21180  Biso   1.000  C
  H30      1.0000 0.94840  0.33990  0.25230  Biso   1.000  H
  C43      1.0000 0.84500  0.28090  0.15600  Biso   1.000  C
  H31      1.0000 0.77770  0.29840  0.15560  Biso   1.000  H
  C44      1.0000 0.04510  0.28080  0.21260  Biso   1.000  C
  C45      1.0000 0.21960  0.58900  0.36100  Biso   1.000  C
  C46      1.0000 0.11710  0.62650  0.32100  Biso   1.000  C
  C47      1.0000 0.94430  0.20340  0.10100  Biso   1.000  C
  H32      1.0000 0.94360  0.16810  0.06240  Biso   1.000  H
  C48      1.0000 0.15570  0.30480  0.26700  Biso   1.000  C
  N31      1.0000 0.23180  0.53070  0.36970  Biso   1.000  N
  N32      1.0000 0.32080  0.61750  0.39810  Biso   1.000  N
  N33      1.0000 0.34680  0.52340  0.41860  Biso   1.000  N
  N34      1.0000 0.39760  0.57310  0.43010  Biso   1.000  N
  N35      1.0000 0.13550  0.68500  0.31970  Biso   1.000  N
  N36      1.0000 0.19320  0.35470  0.33190  Biso   1.000  N
  N37      1.0000 0.24510  0.27530  0.26230  Biso   1.000  N
  N38      1.0000 0.33780  0.30690  0.31940  Biso   1.000  N
  N39      1.0000 0.30690  0.35410  0.35710  Biso   1.000  N
  N40      1.0000 0.04710  0.22930  0.15900  Biso   1.000  N
