data_image0
_cell_length_a       16.072
_cell_length_b       16.344
_cell_length_c       18.111
_cell_angle_alpha    72.641
_cell_angle_beta     86.882
_cell_angle_gamma    60.58

_symmetry_space_group_name_H-M    "P 1"
_symmetry_int_tables_number       1

loop_
  _symmetry_equiv_pos_as_xyz
  'x, y, z'

loop_
  _atom_site_label
  _atom_site_occupancy
  _atom_site_fract_x
  _atom_site_fract_y
  _atom_site_fract_z
  _atom_site_thermal_displace_type
  _atom_site_B_iso_or_equiv
  _atom_site_type_symbol
  Ag1      1.0000 0.40072  0.82669  0.22353  Biso   1.000  Ag
  Ag2      1.0000 0.74268  0.68538  0.03325  Biso   1.000  Ag
  Ag3      1.0000 0.09884  0.22059  0.28525  Biso   1.000  Ag
  Ag4      1.0000 0.61202  0.61524  0.36695  Biso   1.000  Ag
  Ag5      1.0000 0.89863  0.37723  0.13368  Biso   1.000  Ag
  Ag6      1.0000 0.74209  0.29474  0.45891  Biso   1.000  Ag
  N1       1.0000 0.87840  0.72230  0.83830  Biso   1.000  N
  N2       1.0000 0.95060  0.66710  0.89670  Biso   1.000  N
  N3       1.0000 0.79800  0.73870  0.86550  Biso   1.000  N
  N4       1.0000 0.81560  0.69450  0.94260  Biso   1.000  N
  N5       1.0000 0.93130  0.60730  0.39930  Biso   1.000  N
  N6       1.0000 0.87590  0.18190  0.51170  Biso   1.000  N
  N7       1.0000 0.33060  0.72290  0.45320  Biso   1.000  N
  N8       1.0000 0.39490  0.59950  0.59440  Biso   1.000  N
  N9       1.0000 0.39330  0.75290  0.34880  Biso   1.000  N
  N10      1.0000 0.46570  0.67860  0.40410  Biso   1.000  N
  N11      1.0000 0.31160  0.77880  0.37930  Biso   1.000  N
  N12      1.0000 0.67150  0.68370  0.12660  Biso   1.000  N
  N13      1.0000 0.60660  0.65930  0.23060  Biso   1.000  N
  N14      1.0000 0.54080  0.74340  0.17740  Biso   1.000  N
  N15      1.0000 0.68830  0.62150  0.20040  Biso   1.000  N
  N16      1.0000 0.61210  0.80670  0.98590  Biso   1.000  N
  N17      1.0000 0.89660  0.46950  0.48710  Biso   1.000  N
  N18      1.0000 0.86260  0.40640  0.52280  Biso   1.000  N
  N19      1.0000 0.78260  0.43480  0.48470  Biso   1.000  N
  N20      1.0000 0.76100  0.51720  0.42210  Biso   1.000  N
  N21      1.0000 0.87930  0.59980  0.09000  Biso   1.000  N
  N22      1.0000 0.58660  0.37060  0.08340  Biso   1.000  N
  N23      1.0000 0.63610  0.59230  0.98460  Biso   1.000  N
  N24      1.0000 0.81650  0.30790  0.37240  Biso   1.000  N
  N25      1.0000 0.79830  0.36930  0.29630  Biso   1.000  N
  N26      1.0000 0.95410  0.26840  0.32860  Biso   1.000  N
  N27      1.0000 0.88450  0.34550  0.27050  Biso   1.000  N
  N28      1.0000 0.72110  0.55820  0.02230  Biso   1.000  N
  N29      1.0000 0.74740  0.46950  0.07660  Biso   1.000  N
  N30      1.0000 0.60700  0.52360  0.01510  Biso   1.000  N
  C1       1.0000 0.89980  0.12050  0.58190  Biso   1.000  C
  H1       1.0000 0.85120  0.12640  0.61390  Biso   1.000  H
  C2       1.0000 0.96080  0.66170  0.35540  Biso   1.000  C
  H2       1.0000 0.01950  0.65390  0.36990  Biso   1.000  H
  C3       1.0000 0.72600  0.28960  0.17410  Biso   1.000  C
  H3       1.0000 0.77990  0.28790  0.19260  Biso   1.000  H
  C4       1.0000 0.07000  0.50150  0.15080  Biso   1.000  C
  H4       1.0000 0.13390  0.46830  0.17170  Biso   1.000  H
  C5       1.0000 0.90630  0.73470  0.28430  Biso   1.000  C
  H5       1.0000 0.92820  0.77520  0.25330  Biso   1.000  H
  C6       1.0000 0.94650  0.17480  0.46290  Biso   1.000  C
  C7       1.0000 0.54670  0.82830  0.03910  Biso   1.000  C
  C8       1.0000 0.70520  0.21360  0.21130  Biso   1.000  C
  H6       1.0000 0.74420  0.16170  0.25470  Biso   1.000  H
  C9       1.0000 0.04000  0.10430  0.48640  Biso   1.000  C
  H7       1.0000 0.08750  0.10060  0.45360  Biso   1.000  H
  C10      1.0000 0.94870  0.59500  0.04210  Biso   1.000  C
  C11      1.0000 0.62670  0.21850  0.18180  Biso   1.000  C
  H8       1.0000 0.61320  0.16760  0.20340  Biso   1.000  H
  C12      1.0000 0.66660  0.36620  0.11070  Biso   1.000  C
  C13      1.0000 0.55960  0.52720  0.57190  Biso   1.000  C
  H9       1.0000 0.60610  0.52250  0.53790  Biso   1.000  H
  C14      1.0000 0.46350  0.59140  0.54680  Biso   1.000  C
  C15      1.0000 0.90830  0.65060  0.96070  Biso   1.000  C
  C16      1.0000 0.84950  0.61330  0.37570  Biso   1.000  C
  C17      1.0000 0.82960  0.53890  0.42720  Biso   1.000  C
  C18      1.0000 0.90990  0.24880  0.38710  Biso   1.000  C
  C19      1.0000 0.99810  0.50810  0.19740  Biso   1.000  C
  H10      1.0000 0.01270  0.48060  0.25120  Biso   1.000  H
  C20      1.0000 0.49790  0.94640  0.88950  Biso   1.000  C
  H11      1.0000 0.48240  0.98330  0.83700  Biso   1.000  H
  C21      1.0000 0.06290  0.03640  0.56260  Biso   1.000  C
  H12      1.0000 0.12540  0.98440  0.57970  Biso   1.000  H
  C22      1.0000 0.67890  0.44760  0.07060  Biso   1.000  C
  C23      1.0000 0.04320  0.54690  0.07020  Biso   1.000  C
  H13      1.0000 0.08950  0.54410  0.03640  Biso   1.000  H
  C24      1.0000 0.82290  0.74400  0.26310  Biso   1.000  C
  H14      1.0000 0.78600  0.79070  0.21680  Biso   1.000  H
  C25      1.0000 0.43180  0.97320  0.94260  Biso   1.000  C
  H15      1.0000 0.37230  0.03060  0.92730  Biso   1.000  H
  C26      1.0000 0.51270  0.47930  0.69750  Biso   1.000  C
  H16      1.0000 0.52750  0.44130  0.74970  Biso   1.000  H
  C27      1.0000 0.90590  0.55470  0.16510  Biso   1.000  C
  H17      1.0000 0.85910  0.55480  0.19760  Biso   1.000  H
  C28      1.0000 0.99070  0.04860  0.61160  Biso   1.000  C
  H18      1.0000 0.00460  0.00860  0.66320  Biso   1.000  H
  C29      1.0000 0.58230  0.75530  0.11550  Biso   1.000  C
  C30      1.0000 0.56500  0.30090  0.11800  Biso   1.000  C
  H19      1.0000 0.50880  0.30600  0.10050  Biso   1.000  H
  C31      1.0000 0.58430  0.86600  0.91580  Biso   1.000  C
  H20      1.0000 0.62870  0.85160  0.87990  Biso   1.000  H
  C32      1.0000 0.41970  0.54480  0.66800  Biso   1.000  C
  H21      1.0000 0.37180  0.55140  0.70080  Biso   1.000  H
  C33      1.0000 0.79360  0.68530  0.30930  Biso   1.000  C
  H22      1.0000 0.73430  0.69320  0.29640  Biso   1.000  H
  C34      1.0000 0.42530  0.66190  0.46710  Biso   1.000  C
  C35      1.0000 0.58520  0.46890  0.65040  Biso   1.000  C
  H23      1.0000 0.64930  0.42460  0.67010  Biso   1.000  H
  C36      1.0000 0.45740  0.91110  0.02030  Biso   1.000  C
  H24      1.0000 0.41500  0.92580  0.05770  Biso   1.000  H
  Ag7      1.0000 0.59928  0.17331  0.77647  Biso   1.000  Ag
  Ag8      1.0000 0.25732  0.31462  0.96675  Biso   1.000  Ag
  Ag9      1.0000 0.90116  0.77941  0.71475  Biso   1.000  Ag
  Ag10     1.0000 0.38798  0.38476  0.63305  Biso   1.000  Ag
  Ag11     1.0000 0.10137  0.62277  0.86632  Biso   1.000  Ag
  Ag12     1.0000 0.25791  0.70526  0.54109  Biso   1.000  Ag
  N31      1.0000 0.12160  0.27770  0.16170  Biso   1.000  N
  N32      1.0000 0.04940  0.33290  0.10330  Biso   1.000  N
  N33      1.0000 0.20200  0.26130  0.13450  Biso   1.000  N
  N34      1.0000 0.18440  0.30550  0.05740  Biso   1.000  N
  N35      1.0000 0.06870  0.39270  0.60070  Biso   1.000  N
  N36      1.0000 0.12410  0.81810  0.48830  Biso   1.000  N
  N37      1.0000 0.66940  0.27710  0.54680  Biso   1.000  N
  N38      1.0000 0.60510  0.40050  0.40560  Biso   1.000  N
  N39      1.0000 0.60670  0.24710  0.65120  Biso   1.000  N
  N40      1.0000 0.53430  0.32140  0.59590  Biso   1.000  N
  N41      1.0000 0.68840  0.22120  0.62070  Biso   1.000  N
  N42      1.0000 0.32850  0.31630  0.87340  Biso   1.000  N
  N43      1.0000 0.39340  0.34070  0.76940  Biso   1.000  N
  N44      1.0000 0.45920  0.25660  0.82260  Biso   1.000  N
  N45      1.0000 0.31170  0.37850  0.79960  Biso   1.000  N
  N46      1.0000 0.38790  0.19330  0.01410  Biso   1.000  N
  N47      1.0000 0.10340  0.53050  0.51290  Biso   1.000  N
  N48      1.0000 0.13740  0.59360  0.47720  Biso   1.000  N
  N49      1.0000 0.21740  0.56520  0.51530  Biso   1.000  N
  N50      1.0000 0.23900  0.48280  0.57790  Biso   1.000  N
  N51      1.0000 0.12070  0.40020  0.91000  Biso   1.000  N
  N52      1.0000 0.41340  0.62940  0.91660  Biso   1.000  N
  N53      1.0000 0.36390  0.40770  0.01540  Biso   1.000  N
  N54      1.0000 0.18350  0.69210  0.62760  Biso   1.000  N
  N55      1.0000 0.20170  0.63070  0.70370  Biso   1.000  N
  N56      1.0000 0.04590  0.73160  0.67140  Biso   1.000  N
  N57      1.0000 0.11550  0.65450  0.72950  Biso   1.000  N
  N58      1.0000 0.27890  0.44180  0.97770  Biso   1.000  N
  N59      1.0000 0.25260  0.53050  0.92340  Biso   1.000  N
  N60      1.0000 0.39300  0.47640  0.98490  Biso   1.000  N
  C37      1.0000 0.10020  0.87950  0.41810  Biso   1.000  C
  H25      1.0000 0.14880  0.87360  0.38610  Biso   1.000  H
  C38      1.0000 0.03920  0.33830  0.64460  Biso   1.000  C
  H26      1.0000 0.98050  0.34610  0.63010  Biso   1.000  H
  C39      1.0000 0.27400  0.71040  0.82590  Biso   1.000  C
  H27      1.0000 0.22010  0.71210  0.80740  Biso   1.000  H
  C40      1.0000 0.93000  0.49850  0.84920  Biso   1.000  C
  H28      1.0000 0.86610  0.53170  0.82830  Biso   1.000  H
  C41      1.0000 0.09370  0.26530  0.71570  Biso   1.000  C
  H29      1.0000 0.07180  0.22480  0.74670  Biso   1.000  H
  C42      1.0000 0.05350  0.82520  0.53710  Biso   1.000  C
  C43      1.0000 0.45330  0.17170  0.96090  Biso   1.000  C
  C44      1.0000 0.29480  0.78640  0.78870  Biso   1.000  C
  H30      1.0000 0.25580  0.83830  0.74530  Biso   1.000  H
  C45      1.0000 0.96000  0.89570  0.51360  Biso   1.000  C
  H31      1.0000 0.91250  0.89940  0.54640  Biso   1.000  H
  C46      1.0000 0.05130  0.40500  0.95790  Biso   1.000  C
  C47      1.0000 0.37330  0.78150  0.81820  Biso   1.000  C
  H32      1.0000 0.38680  0.83240  0.79660  Biso   1.000  H
  C48      1.0000 0.33340  0.63380  0.88930  Biso   1.000  C
  C49      1.0000 0.44040  0.47280  0.42810  Biso   1.000  C
  H33      1.0000 0.39390  0.47750  0.46210  Biso   1.000  H
  C50      1.0000 0.53650  0.40860  0.45320  Biso   1.000  C
  C51      1.0000 0.09170  0.34940  0.03930  Biso   1.000  C
  C52      1.0000 0.15050  0.38670  0.62430  Biso   1.000  C
  C53      1.0000 0.17040  0.46110  0.57280  Biso   1.000  C
  C54      1.0000 0.09010  0.75120  0.61290  Biso   1.000  C
  C55      1.0000 0.00190  0.49190  0.80260  Biso   1.000  C
  H34      1.0000 0.98730  0.51940  0.74880  Biso   1.000  H
  C56      1.0000 0.50210  0.05360  0.11050  Biso   1.000  C
  H35      1.0000 0.51760  0.01670  0.16300  Biso   1.000  H
  C57      1.0000 0.93710  0.96360  0.43740  Biso   1.000  C
  H36      1.0000 0.87460  0.01560  0.42030  Biso   1.000  H
  C58      1.0000 0.32110  0.55240  0.92940  Biso   1.000  C
  C59      1.0000 0.95680  0.45310  0.92980  Biso   1.000  C
  H37      1.0000 0.91050  0.45590  0.96360  Biso   1.000  H
  C60      1.0000 0.17710  0.25600  0.73690  Biso   1.000  C
  H38      1.0000 0.21400  0.20930  0.78320  Biso   1.000  H
  C61      1.0000 0.56820  0.02680  0.05740  Biso   1.000  C
  H39      1.0000 0.62770  0.96940  0.07270  Biso   1.000  H
  C62      1.0000 0.48730  0.52070  0.30250  Biso   1.000  C
  H40      1.0000 0.47250  0.55870  0.25030  Biso   1.000  H
  C63      1.0000 0.09410  0.44530  0.83490  Biso   1.000  C
  H41      1.0000 0.14090  0.44520  0.80240  Biso   1.000  H
  C64      1.0000 0.00930  0.95140  0.38840  Biso   1.000  C
  H42      1.0000 0.99540  0.99140  0.33680  Biso   1.000  H
  C65      1.0000 0.41770  0.24470  0.88450  Biso   1.000  C
  C66      1.0000 0.43500  0.69910  0.88200  Biso   1.000  C
  H43      1.0000 0.49120  0.69400  0.89950  Biso   1.000  H
  C67      1.0000 0.41570  0.13400  0.08420  Biso   1.000  C
  H44      1.0000 0.37130  0.14840  0.12010  Biso   1.000  H
  C68      1.0000 0.58030  0.45520  0.33200  Biso   1.000  C
  H45      1.0000 0.62820  0.44860  0.29920  Biso   1.000  H
  C69      1.0000 0.20640  0.31470  0.69070  Biso   1.000  C
  H46      1.0000 0.26570  0.30680  0.70360  Biso   1.000  H
  C70      1.0000 0.57470  0.33810  0.53290  Biso   1.000  C
  C71      1.0000 0.41480  0.53110  0.34960  Biso   1.000  C
  H47      1.0000 0.35070  0.57540  0.32990  Biso   1.000  H
  C72      1.0000 0.54260  0.08890  0.97970  Biso   1.000  C
  H48      1.0000 0.58500  0.07420  0.94230  Biso   1.000  H
  Ag13     1.0000 0.00000  0.50000  0.50000  Biso   1.000  Ag
  Ag14     1.0000 0.50000  0.50000  0.00000  Biso   1.000  Ag
