data_image0
_cell_length_a       15.1796
_cell_length_b       15.6453
_cell_length_c       16.984
_cell_angle_alpha    90
_cell_angle_beta     119.218
_cell_angle_gamma    90

_symmetry_space_group_name_H-M    "P 1"
_symmetry_int_tables_number       1

loop_
  _symmetry_equiv_pos_as_xyz
  'x, y, z'

loop_
  _atom_site_label
  _atom_site_occupancy
  _atom_site_fract_x
  _atom_site_fract_y
  _atom_site_fract_z
  _atom_site_thermal_displace_type
  _atom_site_B_iso_or_equiv
  _atom_site_type_symbol
  C1       1.0000 0.84420  0.47690  0.69780  Biso   1.000  C
  C2       1.0000 0.27760  0.73420  0.59020  Biso   1.000  C
  H1       1.0000 0.26250  0.69940  0.63010  Biso   1.000  H
  C3       1.0000 0.68860  0.53700  0.57030  Biso   1.000  C
  H2       1.0000 0.71400  0.52020  0.53270  Biso   1.000  H
  C4       1.0000 0.16180  0.85540  0.58150  Biso   1.000  C
  C5       1.0000 0.18750  0.79290  0.52800  Biso   1.000  C
  H3       1.0000 0.12820  0.75800  0.48940  Biso   1.000  H
  C6       1.0000 0.42990  0.70650  0.48970  Biso   1.000  C
  C7       1.0000 0.36770  0.79140  0.64260  Biso   1.000  C
  H4       1.0000 0.40340  0.79270  0.70530  Biso   1.000  H
  C8       1.0000 0.29880  0.67890  0.52670  Biso   1.000  C
  H5       1.0000 0.23910  0.64450  0.48810  Biso   1.000  H
  C9       1.0000 0.21550  0.84830  0.47030  Biso   1.000  C
  H6       1.0000 0.16960  0.83640  0.40630  Biso   1.000  H
  C10      1.0000 0.61520  0.59000  0.68290  Biso   1.000  C
  H7       1.0000 0.59060  0.60920  0.72030  Biso   1.000  H
  C11      1.0000 0.74500  0.52360  0.66170  Biso   1.000  C
  C12      1.0000 0.32610  0.73430  0.46850  Biso   1.000  C
  H8       1.0000 0.27830  0.72480  0.40450  Biso   1.000  H
  C13      1.0000 0.70770  0.55100  0.71970  Biso   1.000  C
  H9       1.0000 0.74540  0.54260  0.78170  Biso   1.000  H
  C14      1.0000 0.55820  0.60110  0.59070  Biso   1.000  C
  C15      1.0000 0.59400  0.57540  0.53350  Biso   1.000  C
  H10      1.0000 0.55550  0.58360  0.47150  Biso   1.000  H
  C16      1.0000 0.07860  0.23750  0.69290  Biso   1.000  C
  C17      1.0000 0.07570  0.15180  0.56630  Biso   1.000  C
  H11      1.0000 0.03980  0.19610  0.52710  Biso   1.000  H
  C18      1.0000 0.09500  0.07780  0.53220  Biso   1.000  C
  H12      1.0000 0.07000  0.07190  0.47040  Biso   1.000  H
  C19      1.0000 0.32510  0.82850  0.49290  Biso   1.000  C
  H13      1.0000 0.34650  0.86570  0.45900  Biso   1.000  H
  C20      1.0000 0.38830  0.62110  0.57820  Biso   1.000  C
  C21      1.0000 0.20300  0.93780  0.49040  Biso   1.000  C
  C22      1.0000 0.39130  0.83950  0.59200  Biso   1.000  C
  H14      1.0000 0.44540  0.87740  0.61630  Biso   1.000  H
  C23      1.0000 0.10840  0.16090  0.65590  Biso   1.000  C
  C24      1.0000 0.15110  0.01340  0.59000  Biso   1.000  C
  C25      1.0000 0.16670  0.09420  0.71430  Biso   1.000  C
  H15      1.0000 0.19120  0.09980  0.77600  Biso   1.000  H
  C26      1.0000 0.18770  0.02180  0.68160  Biso   1.000  C
  H16      1.0000 0.22640  0.97860  0.72080  Biso   1.000  H
  N1       1.0000 0.46090  0.64090  0.55320  Biso   1.000  N
  N2       1.0000 0.17090  0.93730  0.55620  Biso   1.000  N
  O1       1.0000 0.39770  0.56660  0.63220  Biso   1.000  O
  O2       1.0000 0.13670  0.83830  0.63800  Biso   1.000  O
  O3       1.0000 0.48220  0.73600  0.46070  Biso   1.000  O
  O4       1.0000 0.12020  0.24930  0.77500  Biso   1.000  O
  O5       1.0000 0.01440  0.28740  0.63570  Biso   1.000  O
  O6       1.0000 0.21850  0.00130  0.45980  Biso   1.000  O
  O7       1.0000 0.86940  0.44990  0.64570  Biso   1.000  O
  O8       1.0000 0.89350  0.46360  0.78360  Biso   1.000  O
  C27      1.0000 0.15580  0.47690  0.80220  Biso   1.000  C
  C28      1.0000 0.72240  0.73420  0.90980  Biso   1.000  C
  H17      1.0000 0.73750  0.69940  0.86990  Biso   1.000  H
  C29      1.0000 0.31140  0.53700  0.92970  Biso   1.000  C
  H18      1.0000 0.28600  0.52020  0.96730  Biso   1.000  H
  C30      1.0000 0.83820  0.85540  0.91850  Biso   1.000  C
  C31      1.0000 0.81250  0.79290  0.97200  Biso   1.000  C
  H19      1.0000 0.87180  0.75800  0.01060  Biso   1.000  H
  C32      1.0000 0.57010  0.70650  0.01030  Biso   1.000  C
  C33      1.0000 0.63230  0.79140  0.85740  Biso   1.000  C
  H20      1.0000 0.59660  0.79270  0.79470  Biso   1.000  H
  C34      1.0000 0.70120  0.67890  0.97330  Biso   1.000  C
  H21      1.0000 0.76090  0.64450  0.01190  Biso   1.000  H
  C35      1.0000 0.78450  0.84830  0.02970  Biso   1.000  C
  H22      1.0000 0.83040  0.83640  0.09370  Biso   1.000  H
  C36      1.0000 0.38480  0.59000  0.81710  Biso   1.000  C
  H23      1.0000 0.40940  0.60920  0.77970  Biso   1.000  H
  C37      1.0000 0.25500  0.52360  0.83830  Biso   1.000  C
  C38      1.0000 0.67390  0.73430  0.03150  Biso   1.000  C
  H24      1.0000 0.72170  0.72480  0.09550  Biso   1.000  H
  C39      1.0000 0.29230  0.55100  0.78030  Biso   1.000  C
  H25      1.0000 0.25460  0.54260  0.71830  Biso   1.000  H
  C40      1.0000 0.44180  0.60110  0.90930  Biso   1.000  C
  C41      1.0000 0.40600  0.57540  0.96650  Biso   1.000  C
  H26      1.0000 0.44450  0.58360  0.02850  Biso   1.000  H
  C42      1.0000 0.92140  0.23750  0.80710  Biso   1.000  C
  C43      1.0000 0.92430  0.15180  0.93370  Biso   1.000  C
  H27      1.0000 0.96020  0.19610  0.97290  Biso   1.000  H
  C44      1.0000 0.90500  0.07780  0.96780  Biso   1.000  C
  H28      1.0000 0.93000  0.07190  0.02960  Biso   1.000  H
  C45      1.0000 0.67490  0.82850  0.00710  Biso   1.000  C
  H29      1.0000 0.65350  0.86570  0.04100  Biso   1.000  H
  C46      1.0000 0.61170  0.62110  0.92180  Biso   1.000  C
  C47      1.0000 0.79700  0.93780  0.00960  Biso   1.000  C
  C48      1.0000 0.60870  0.83950  0.90800  Biso   1.000  C
  H30      1.0000 0.55460  0.87740  0.88370  Biso   1.000  H
  C49      1.0000 0.89160  0.16090  0.84410  Biso   1.000  C
  C50      1.0000 0.84890  0.01340  0.91000  Biso   1.000  C
  C51      1.0000 0.83330  0.09420  0.78570  Biso   1.000  C
  H31      1.0000 0.80880  0.09980  0.72400  Biso   1.000  H
  C52      1.0000 0.81230  0.02180  0.81840  Biso   1.000  C
  H32      1.0000 0.77360  0.97860  0.77920  Biso   1.000  H
  N3       1.0000 0.53910  0.64090  0.94680  Biso   1.000  N
  N4       1.0000 0.82910  0.93730  0.94380  Biso   1.000  N
  O9       1.0000 0.60230  0.56660  0.86780  Biso   1.000  O
  O10      1.0000 0.86330  0.83830  0.86200  Biso   1.000  O
  O11      1.0000 0.51780  0.73600  0.03930  Biso   1.000  O
  O12      1.0000 0.87980  0.24930  0.72500  Biso   1.000  O
  O13      1.0000 0.98560  0.28740  0.86430  Biso   1.000  O
  O14      1.0000 0.78150  0.00130  0.04020  Biso   1.000  O
  O15      1.0000 0.13060  0.44990  0.85430  Biso   1.000  O
  O16      1.0000 0.10650  0.46360  0.71640  Biso   1.000  O
  Cd1      1.0000 0.00000  0.36185  0.75000  Biso   1.000  Cd
  C53      1.0000 0.15580  0.52310  0.30220  Biso   1.000  C
  C54      1.0000 0.72240  0.26580  0.40980  Biso   1.000  C
  H33      1.0000 0.73750  0.30060  0.36990  Biso   1.000  H
  C55      1.0000 0.31140  0.46300  0.42970  Biso   1.000  C
  H34      1.0000 0.28600  0.47980  0.46730  Biso   1.000  H
  C56      1.0000 0.83820  0.14460  0.41850  Biso   1.000  C
  C57      1.0000 0.81250  0.20710  0.47200  Biso   1.000  C
  H35      1.0000 0.87180  0.24200  0.51060  Biso   1.000  H
  C58      1.0000 0.57010  0.29350  0.51030  Biso   1.000  C
  C59      1.0000 0.63230  0.20860  0.35740  Biso   1.000  C
  H36      1.0000 0.59660  0.20730  0.29470  Biso   1.000  H
  C60      1.0000 0.70120  0.32110  0.47330  Biso   1.000  C
  H37      1.0000 0.76090  0.35550  0.51190  Biso   1.000  H
  C61      1.0000 0.78450  0.15170  0.52970  Biso   1.000  C
  H38      1.0000 0.83040  0.16360  0.59370  Biso   1.000  H
  C62      1.0000 0.38480  0.41000  0.31710  Biso   1.000  C
  H39      1.0000 0.40940  0.39080  0.27970  Biso   1.000  H
  C63      1.0000 0.25500  0.47640  0.33830  Biso   1.000  C
  C64      1.0000 0.67390  0.26570  0.53150  Biso   1.000  C
  H40      1.0000 0.72170  0.27520  0.59550  Biso   1.000  H
  C65      1.0000 0.29230  0.44900  0.28030  Biso   1.000  C
  H41      1.0000 0.25460  0.45740  0.21830  Biso   1.000  H
  C66      1.0000 0.44180  0.39890  0.40930  Biso   1.000  C
  C67      1.0000 0.40600  0.42460  0.46650  Biso   1.000  C
  H42      1.0000 0.44450  0.41640  0.52850  Biso   1.000  H
  C68      1.0000 0.92140  0.76250  0.30710  Biso   1.000  C
  C69      1.0000 0.92430  0.84820  0.43370  Biso   1.000  C
  H43      1.0000 0.96020  0.80390  0.47290  Biso   1.000  H
  C70      1.0000 0.90500  0.92220  0.46780  Biso   1.000  C
  H44      1.0000 0.93000  0.92810  0.52960  Biso   1.000  H
  C71      1.0000 0.67490  0.17150  0.50710  Biso   1.000  C
  H45      1.0000 0.65350  0.13430  0.54100  Biso   1.000  H
  C72      1.0000 0.61170  0.37890  0.42180  Biso   1.000  C
  C73      1.0000 0.79700  0.06220  0.50960  Biso   1.000  C
  C74      1.0000 0.60870  0.16050  0.40800  Biso   1.000  C
  H46      1.0000 0.55460  0.12260  0.38370  Biso   1.000  H
  C75      1.0000 0.89160  0.83910  0.34410  Biso   1.000  C
  C76      1.0000 0.84890  0.98660  0.41000  Biso   1.000  C
  C77      1.0000 0.83330  0.90580  0.28570  Biso   1.000  C
  H47      1.0000 0.80880  0.90020  0.22400  Biso   1.000  H
  C78      1.0000 0.81230  0.97820  0.31840  Biso   1.000  C
  H48      1.0000 0.77360  0.02140  0.27920  Biso   1.000  H
  N5       1.0000 0.53910  0.35910  0.44680  Biso   1.000  N
  N6       1.0000 0.82910  0.06270  0.44380  Biso   1.000  N
  O17      1.0000 0.60230  0.43340  0.36780  Biso   1.000  O
  O18      1.0000 0.86330  0.16170  0.36200  Biso   1.000  O
  O19      1.0000 0.51780  0.26400  0.53930  Biso   1.000  O
  O20      1.0000 0.87980  0.75070  0.22500  Biso   1.000  O
  O21      1.0000 0.98560  0.71260  0.36430  Biso   1.000  O
  O22      1.0000 0.78150  0.99870  0.54020  Biso   1.000  O
  O23      1.0000 0.13060  0.55010  0.35430  Biso   1.000  O
  O24      1.0000 0.10650  0.53640  0.21640  Biso   1.000  O
  C79      1.0000 0.84420  0.52310  0.19780  Biso   1.000  C
  C80      1.0000 0.27760  0.26580  0.09020  Biso   1.000  C
  H49      1.0000 0.26250  0.30060  0.13010  Biso   1.000  H
  C81      1.0000 0.68860  0.46300  0.07030  Biso   1.000  C
  H50      1.0000 0.71400  0.47980  0.03270  Biso   1.000  H
  C82      1.0000 0.16180  0.14460  0.08150  Biso   1.000  C
  C83      1.0000 0.18750  0.20710  0.02800  Biso   1.000  C
  H51      1.0000 0.12820  0.24200  0.98940  Biso   1.000  H
  C84      1.0000 0.42990  0.29350  0.98970  Biso   1.000  C
  C85      1.0000 0.36770  0.20860  0.14260  Biso   1.000  C
  H52      1.0000 0.40340  0.20730  0.20530  Biso   1.000  H
  C86      1.0000 0.29880  0.32110  0.02670  Biso   1.000  C
  H53      1.0000 0.23910  0.35550  0.98810  Biso   1.000  H
  C87      1.0000 0.21550  0.15170  0.97030  Biso   1.000  C
  H54      1.0000 0.16960  0.16360  0.90630  Biso   1.000  H
  C88      1.0000 0.61520  0.41000  0.18290  Biso   1.000  C
  H55      1.0000 0.59060  0.39080  0.22030  Biso   1.000  H
  C89      1.0000 0.74500  0.47640  0.16170  Biso   1.000  C
  C90      1.0000 0.32610  0.26570  0.96850  Biso   1.000  C
  H56      1.0000 0.27830  0.27520  0.90450  Biso   1.000  H
  C91      1.0000 0.70770  0.44900  0.21970  Biso   1.000  C
  H57      1.0000 0.74540  0.45740  0.28170  Biso   1.000  H
  C92      1.0000 0.55820  0.39890  0.09070  Biso   1.000  C
  C93      1.0000 0.59400  0.42460  0.03350  Biso   1.000  C
  H58      1.0000 0.55550  0.41640  0.97150  Biso   1.000  H
  C94      1.0000 0.07860  0.76250  0.19290  Biso   1.000  C
  C95      1.0000 0.07570  0.84820  0.06630  Biso   1.000  C
  H59      1.0000 0.03980  0.80390  0.02710  Biso   1.000  H
  C96      1.0000 0.09500  0.92220  0.03220  Biso   1.000  C
  H60      1.0000 0.07000  0.92810  0.97040  Biso   1.000  H
  C97      1.0000 0.32510  0.17150  0.99290  Biso   1.000  C
  H61      1.0000 0.34650  0.13430  0.95900  Biso   1.000  H
  C98      1.0000 0.38830  0.37890  0.07820  Biso   1.000  C
  C99      1.0000 0.20300  0.06220  0.99040  Biso   1.000  C
  C100     1.0000 0.39130  0.16050  0.09200  Biso   1.000  C
  H62      1.0000 0.44540  0.12260  0.11630  Biso   1.000  H
  C101     1.0000 0.10840  0.83910  0.15590  Biso   1.000  C
  C102     1.0000 0.15110  0.98660  0.09000  Biso   1.000  C
  C103     1.0000 0.16670  0.90580  0.21430  Biso   1.000  C
  H63      1.0000 0.19120  0.90020  0.27600  Biso   1.000  H
  C104     1.0000 0.18770  0.97820  0.18160  Biso   1.000  C
  H64      1.0000 0.22640  0.02140  0.22080  Biso   1.000  H
  N7       1.0000 0.46090  0.35910  0.05320  Biso   1.000  N
  N8       1.0000 0.17090  0.06270  0.05620  Biso   1.000  N
  O25      1.0000 0.39770  0.43340  0.13220  Biso   1.000  O
  O26      1.0000 0.13670  0.16170  0.13800  Biso   1.000  O
  O27      1.0000 0.48220  0.26400  0.96070  Biso   1.000  O
  O28      1.0000 0.12020  0.75070  0.27500  Biso   1.000  O
  O29      1.0000 0.01440  0.71260  0.13570  Biso   1.000  O
  O30      1.0000 0.21850  0.99870  0.95980  Biso   1.000  O
  O31      1.0000 0.86940  0.55010  0.14570  Biso   1.000  O
  O32      1.0000 0.89350  0.53640  0.28360  Biso   1.000  O
  Cd2      1.0000 0.00000  0.63815  0.25000  Biso   1.000  Cd
