data_image0
_cell_length_a       11.528
_cell_length_b       11.791
_cell_length_c       20.334
_cell_angle_alpha    94.01
_cell_angle_beta     103.75
_cell_angle_gamma    111.8

_symmetry_space_group_name_H-M    "P 1"
_symmetry_int_tables_number       1

loop_
  _symmetry_equiv_pos_as_xyz
  'x, y, z'

loop_
  _atom_site_label
  _atom_site_occupancy
  _atom_site_fract_x
  _atom_site_fract_y
  _atom_site_fract_z
  _atom_site_thermal_displace_type
  _atom_site_B_iso_or_equiv
  _atom_site_type_symbol
  C1       1.0000 0.31610  0.19150  0.42240  Biso   1.000  C
  H1       1.0000 0.28870  0.25540  0.43500  Biso   1.000  H
  H2       1.0000 0.27250  0.15490  0.37490  Biso   1.000  H
  H3       1.0000 0.40860  0.22680  0.42920  Biso   1.000  H
  O1       1.0000 0.32150  0.01240  0.46390  Biso   1.000  O
  C2       1.0000 0.28350  0.09640  0.46510  Biso   1.000  C
  N1       1.0000 0.21350  0.10770  0.50610  Biso   1.000  N
  H4       1.0000 0.19010  0.17250  0.50780  Biso   1.000  H
  C3       1.0000 0.17540  0.02300  0.55170  Biso   1.000  C
  H5       1.0000 0.23210  0.97870  0.55980  Biso   1.000  H
  H6       1.0000 0.08700  0.96260  0.53060  Biso   1.000  H
  C4       1.0000 0.18310  0.09170  0.62040  Biso   1.000  C
  H7       1.0000 0.27190  0.15190  0.64080  Biso   1.000  H
  H8       1.0000 0.12770  0.13710  0.61140  Biso   1.000  H
  C5       1.0000 0.14660  0.01650  0.66790  Biso   1.000  C
  H9       1.0000 0.19410  0.96340  0.67090  Biso   1.000  H
  H10      1.0000 0.05510  0.96290  0.64820  Biso   1.000  H
  C6       1.0000 0.16180  0.06720  0.73650  Biso   1.000  C
  H11      1.0000 0.24940  0.08190  0.76320  Biso   1.000  H
  H12      1.0000 0.10260  0.00310  0.75430  Biso   1.000  H
  C7       1.0000 0.14260  0.17790  0.75150  Biso   1.000  C
  H13      1.0000 0.05560  0.16640  0.72550  Biso   1.000  H
  H14      1.0000 0.20440  0.24550  0.73700  Biso   1.000  H
  C8       1.0000 0.15960  0.21270  0.82820  Biso   1.000  C
  H15      1.0000 0.09340  0.14780  0.84180  Biso   1.000  H
  H16      1.0000 0.24400  0.21780  0.85430  Biso   1.000  H
  N2       1.0000 0.15030  0.32610  0.84430  Biso   1.000  N
  H17      1.0000 0.06300  0.30260  0.82760  Biso   1.000  H
  O2       1.0000 0.35840  0.42890  0.90320  Biso   1.000  O
  C9       1.0000 0.24890  0.42900  0.88090  Biso   1.000  C
  C10      1.0000 0.21950  0.53750  0.89260  Biso   1.000  C
  H18      1.0000 0.12950  0.51740  0.86960  Biso   1.000  H
  H19      1.0000 0.27370  0.60430  0.87490  Biso   1.000  H
  H20      1.0000 0.23580  0.56230  0.94100  Biso   1.000  H
  C11      1.0000 0.43920  0.96760  0.31720  Biso   1.000  C
  H21      1.0000 0.42710  0.97860  0.27010  Biso   1.000  H
  H22      1.0000 0.36010  0.95410  0.32930  Biso   1.000  H
  H23      1.0000 0.46100  0.89720  0.32300  Biso   1.000  H
  O3       1.0000 0.57100  0.09360  0.42600  Biso   1.000  O
  C12      1.0000 0.54600  0.08010  0.36210  Biso   1.000  C
  N3       1.0000 0.61130  0.16720  0.33280  Biso   1.000  N
  H24      1.0000 0.60030  0.18290  0.29050  Biso   1.000  H
  C13      1.0000 0.71980  0.28120  0.36820  Biso   1.000  C
  H25      1.0000 0.79970  0.27760  0.36280  Biso   1.000  H
  H26      1.0000 0.72650  0.29050  0.41700  Biso   1.000  H
  C14      1.0000 0.70410  0.39380  0.34060  Biso   1.000  C
  H27      1.0000 0.78300  0.46710  0.36230  Biso   1.000  H
  H28      1.0000 0.69390  0.38230  0.29160  Biso   1.000  H
  C15      1.0000 0.58880  0.41520  0.35320  Biso   1.000  C
  H29      1.0000 0.50950  0.34760  0.32540  Biso   1.000  H
  H30      1.0000 0.59150  0.41180  0.40100  Biso   1.000  H
  C16      1.0000 0.58150  0.52890  0.33850  Biso   1.000  C
  H31      1.0000 0.58080  0.53370  0.29100  Biso   1.000  H
  H32      1.0000 0.65920  0.59700  0.36730  Biso   1.000  H
  C17      1.0000 0.46180  0.54540  0.34980  Biso   1.000  C
  H33      1.0000 0.41590  0.55370  0.30510  Biso   1.000  H
  H34      1.0000 0.40810  0.46520  0.35800  Biso   1.000  H
  C18      1.0000 0.45300  0.61010  0.38480  Biso   1.000  C
  H35      1.0000 0.50640  0.69050  0.37680  Biso   1.000  H
  H36      1.0000 0.49860  0.60190  0.42970  Biso   1.000  H
  N4       1.0000 0.33620  0.62380  0.39470  Biso   1.000  N
  H37      1.0000 0.26890  0.55110  0.38560  Biso   1.000  H
  O4       1.0000 0.43720  0.82060  0.44240  Biso   1.000  O
  C19      1.0000 0.33700  0.72730  0.42050  Biso   1.000  C
  C20      1.0000 0.20680  0.72260  0.42150  Biso   1.000  C
  H38      1.0000 0.14100  0.64260  0.39860  Biso   1.000  H
  H39      1.0000 0.19020  0.78560  0.39840  Biso   1.000  H
  H40      1.0000 0.20490  0.73660  0.46830  Biso   1.000  H
  C21      1.0000 0.68390  0.80850  0.57760  Biso   1.000  C
  H41      1.0000 0.71130  0.74460  0.56500  Biso   1.000  H
  H42      1.0000 0.72750  0.84510  0.62510  Biso   1.000  H
  H43      1.0000 0.59140  0.77320  0.57080  Biso   1.000  H
  O5       1.0000 0.67850  0.98760  0.53610  Biso   1.000  O
  C22      1.0000 0.71650  0.90360  0.53490  Biso   1.000  C
  N5       1.0000 0.78650  0.89230  0.49390  Biso   1.000  N
  H44      1.0000 0.80990  0.82750  0.49220  Biso   1.000  H
  C23      1.0000 0.82460  0.97700  0.44830  Biso   1.000  C
  H45      1.0000 0.76790  0.02130  0.44020  Biso   1.000  H
  H46      1.0000 0.91300  0.03740  0.46940  Biso   1.000  H
  C24      1.0000 0.81690  0.90830  0.37960  Biso   1.000  C
  H47      1.0000 0.72810  0.84810  0.35920  Biso   1.000  H
  H48      1.0000 0.87230  0.86290  0.38860  Biso   1.000  H
  C25      1.0000 0.85340  0.98350  0.33210  Biso   1.000  C
  H49      1.0000 0.80590  0.03660  0.32910  Biso   1.000  H
  H50      1.0000 0.94490  0.03710  0.35180  Biso   1.000  H
  C26      1.0000 0.83820  0.93280  0.26350  Biso   1.000  C
  H51      1.0000 0.75060  0.91810  0.23680  Biso   1.000  H
  H52      1.0000 0.89740  0.99690  0.24570  Biso   1.000  H
  C27      1.0000 0.85740  0.82210  0.24850  Biso   1.000  C
  H53      1.0000 0.94440  0.83360  0.27450  Biso   1.000  H
  H54      1.0000 0.79560  0.75450  0.26300  Biso   1.000  H
  C28      1.0000 0.84040  0.78730  0.17180  Biso   1.000  C
  H55      1.0000 0.90660  0.85220  0.15820  Biso   1.000  H
  H56      1.0000 0.75600  0.78220  0.14570  Biso   1.000  H
  N6       1.0000 0.84970  0.67390  0.15570  Biso   1.000  N
  H57      1.0000 0.93700  0.69740  0.17240  Biso   1.000  H
  O6       1.0000 0.64160  0.57110  0.09680  Biso   1.000  O
  C29      1.0000 0.75110  0.57100  0.11910  Biso   1.000  C
  C30      1.0000 0.78050  0.46250  0.10740  Biso   1.000  C
  H58      1.0000 0.87050  0.48260  0.13040  Biso   1.000  H
  H59      1.0000 0.72630  0.39570  0.12510  Biso   1.000  H
  H60      1.0000 0.76420  0.43770  0.05900  Biso   1.000  H
  C31      1.0000 0.56080  0.03240  0.68280  Biso   1.000  C
  H61      1.0000 0.57290  0.02140  0.72990  Biso   1.000  H
  H62      1.0000 0.63990  0.04590  0.67070  Biso   1.000  H
  H63      1.0000 0.53900  0.10280  0.67700  Biso   1.000  H
  O7       1.0000 0.42900  0.90640  0.57400  Biso   1.000  O
  C32      1.0000 0.45400  0.91990  0.63790  Biso   1.000  C
  N7       1.0000 0.38870  0.83280  0.66720  Biso   1.000  N
  H64      1.0000 0.39970  0.81710  0.70950  Biso   1.000  H
  C33      1.0000 0.28020  0.71880  0.63180  Biso   1.000  C
  H65      1.0000 0.20030  0.72240  0.63720  Biso   1.000  H
  H66      1.0000 0.27350  0.70950  0.58300  Biso   1.000  H
  C34      1.0000 0.29590  0.60620  0.65940  Biso   1.000  C
  H67      1.0000 0.21700  0.53290  0.63770  Biso   1.000  H
  H68      1.0000 0.30610  0.61770  0.70840  Biso   1.000  H
  C35      1.0000 0.41120  0.58480  0.64680  Biso   1.000  C
  H69      1.0000 0.49050  0.65240  0.67460  Biso   1.000  H
  H70      1.0000 0.40850  0.58820  0.59900  Biso   1.000  H
  C36      1.0000 0.41850  0.47110  0.66150  Biso   1.000  C
  H71      1.0000 0.41920  0.46630  0.70900  Biso   1.000  H
  H72      1.0000 0.34080  0.40300  0.63270  Biso   1.000  H
  C37      1.0000 0.53820  0.45460  0.65020  Biso   1.000  C
  H73      1.0000 0.58410  0.44630  0.69490  Biso   1.000  H
  H74      1.0000 0.59190  0.53480  0.64200  Biso   1.000  H
  C38      1.0000 0.54700  0.38990  0.61520  Biso   1.000  C
  H75      1.0000 0.49360  0.30950  0.62320  Biso   1.000  H
  H76      1.0000 0.50140  0.39810  0.57030  Biso   1.000  H
  N8       1.0000 0.66380  0.37620  0.60530  Biso   1.000  N
  H77      1.0000 0.73110  0.44890  0.61440  Biso   1.000  H
  O8       1.0000 0.56280  0.17940  0.55760  Biso   1.000  O
  C39      1.0000 0.66300  0.27270  0.57950  Biso   1.000  C
  C40      1.0000 0.79320  0.27740  0.57850  Biso   1.000  C
  H78      1.0000 0.85900  0.35740  0.60140  Biso   1.000  H
  H79      1.0000 0.80980  0.21440  0.60160  Biso   1.000  H
  H80      1.0000 0.79510  0.26340  0.53170  Biso   1.000  H
  Co1      1.0000 0.50000  0.00000  0.50000  Biso   1.000  Co
  Co2      1.0000 0.50000  0.50000  0.00000  Biso   1.000  Co
