data_image0
_cell_length_a       7.7662
_cell_length_b       13.7809
_cell_length_c       18.9613
_cell_angle_alpha    109.657
_cell_angle_beta     92.874
_cell_angle_gamma    98.726

_symmetry_space_group_name_H-M    "P 1"
_symmetry_int_tables_number       1

loop_
  _symmetry_equiv_pos_as_xyz
  'x, y, z'

loop_
  _atom_site_label
  _atom_site_occupancy
  _atom_site_fract_x
  _atom_site_fract_y
  _atom_site_fract_z
  _atom_site_thermal_displace_type
  _atom_site_B_iso_or_equiv
  _atom_site_type_symbol
  Ag1      1.0000 0.77240  0.45230  0.60821  Biso   1.000  Ag
  Ag2      1.0000 0.04348  0.73424  0.67153  Biso   1.000  Ag
  Ag3      1.0000 0.11773  0.56587  0.71403  Biso   1.000  Ag
  Ag4      1.0000 0.36991  0.66439  0.62256  Biso   1.000  Ag
  Ag5      1.0000 0.50322  0.54644  0.71781  Biso   1.000  Ag
  Ag6      1.0000 0.35288  0.35290  0.62004  Biso   1.000  Ag
  Ag7      1.0000 0.10332  0.00213  0.81676  Biso   1.000  Ag
  C1       1.0000 0.04190  0.56850  0.60640  Biso   1.000  C
  C2       1.0000 0.00990  0.52320  0.53830  Biso   1.000  C
  C3       1.0000 0.47270  0.48900  0.59710  Biso   1.000  C
  C4       1.0000 0.49180  0.49880  0.53510  Biso   1.000  C
  C5       1.0000 0.31490  0.58490  0.86160  Biso   1.000  C
  C6       1.0000 0.30800  0.58610  0.94360  Biso   1.000  C
  C7       1.0000 0.86980  0.38560  0.74050  Biso   1.000  C
  C8       1.0000 0.84400  0.32990  0.79750  Biso   1.000  C
  C9       1.0000 0.04630  0.91910  0.94910  Biso   1.000  C
  H1       1.0000 0.07750  0.86050  0.91420  Biso   1.000  H
  C10      1.0000 0.98180  0.08250  0.97900  Biso   1.000  C
  C11      1.0000 0.33800  0.26550  0.75040  Biso   1.000  C
  H2       1.0000 0.39720  0.33330  0.77670  Biso   1.000  H
  C12      1.0000 0.29640  0.20070  0.78960  Biso   1.000  C
  C13      1.0000 0.18230  0.07220  0.67930  Biso   1.000  C
  H3       1.0000 0.12650  0.00400  0.65210  Biso   1.000  H
  C14      1.0000 0.22690  0.13880  0.64140  Biso   1.000  C
  H4       1.0000 0.20490  0.11420  0.58920  Biso   1.000  H
  C15      1.0000 0.34600  0.23540  0.87260  Biso   1.000  C
  H5       1.0000 0.42960  0.29950  0.88860  Biso   1.000  H
  H6       1.0000 0.39610  0.18250  0.88420  Biso   1.000  H
  H7       1.0000 0.24320  0.24670  0.89830  Biso   1.000  H
  F1       1.0000 0.20400  0.64100  0.97990  Biso   1.000  F
  F2       1.0000 0.47500  0.63500  0.97930  Biso   1.000  F
  F3       1.0000 0.29900  0.49050  0.94530  Biso   1.000  F
  F4       1.0000 0.76600  0.38040  0.85130  Biso   1.000  F
  F5       1.0000 0.97100  0.31200  0.82400  Biso   1.000  F
  F6       1.0000 0.74000  0.24050  0.76700  Biso   1.000  F
  N1       1.0000 0.21520  0.10050  0.75320  Biso   1.000  N
  N2       1.0000 0.30040  0.23740  0.67710  Biso   1.000  N
  N3       1.0000 0.03060  0.00040  0.92860  Biso   1.000  N
  O1       1.0000 0.18580  0.60980  0.83660  Biso   1.000  O
  O2       1.0000 0.44240  0.55550  0.83270  Biso   1.000  O
  O3       1.0000 0.74720  0.40900  0.71450  Biso   1.000  O
  O4       1.0000 0.02800  0.39930  0.72630  Biso   1.000  O
  F7       1.0000 0.43300  0.55500  0.97100  Biso   1.000  F
  F8       1.0000 0.34300  0.68400  0.99020  Biso   1.000  F
  F9       1.0000 0.14800  0.55970  0.96030  Biso   1.000  F
  C16      1.0000 0.93800  0.16130  0.94910  Biso   1.000  C
  H8       1.0000 0.92900  0.13380  0.89510  Biso   1.000  H
  H9       1.0000 0.02800  0.22260  0.96760  Biso   1.000  H
  H10      1.0000 0.82810  0.17960  0.96490  Biso   1.000  H
  Ag8      1.0000 0.77420  0.48530  0.61920  Biso   1.000  Ag
  Ag9      1.0000 0.22760  0.54770  0.39179  Biso   1.000  Ag
  Ag10     1.0000 0.95652  0.26576  0.32847  Biso   1.000  Ag
  Ag11     1.0000 0.88227  0.43413  0.28597  Biso   1.000  Ag
  Ag12     1.0000 0.63009  0.33561  0.37744  Biso   1.000  Ag
  Ag13     1.0000 0.49678  0.45356  0.28219  Biso   1.000  Ag
  Ag14     1.0000 0.64712  0.64710  0.37996  Biso   1.000  Ag
  Ag15     1.0000 0.89668  0.99787  0.18324  Biso   1.000  Ag
  C17      1.0000 0.95810  0.43150  0.39360  Biso   1.000  C
  C18      1.0000 0.99010  0.47680  0.46170  Biso   1.000  C
  C19      1.0000 0.52730  0.51100  0.40290  Biso   1.000  C
  C20      1.0000 0.50820  0.50120  0.46490  Biso   1.000  C
  C21      1.0000 0.68510  0.41510  0.13840  Biso   1.000  C
  C22      1.0000 0.69200  0.41390  0.05640  Biso   1.000  C
  C23      1.0000 0.13020  0.61440  0.25950  Biso   1.000  C
  C24      1.0000 0.15600  0.67010  0.20250  Biso   1.000  C
  C25      1.0000 0.95370  0.08090  0.05090  Biso   1.000  C
  H11      1.0000 0.92250  0.13950  0.08580  Biso   1.000  H
  C26      1.0000 0.01820  0.91750  0.02100  Biso   1.000  C
  C27      1.0000 0.66200  0.73450  0.24960  Biso   1.000  C
  H12      1.0000 0.60280  0.66670  0.22330  Biso   1.000  H
  C28      1.0000 0.70360  0.79930  0.21040  Biso   1.000  C
  C29      1.0000 0.81770  0.92780  0.32070  Biso   1.000  C
  H13      1.0000 0.87350  0.99600  0.34790  Biso   1.000  H
  C30      1.0000 0.77310  0.86120  0.35860  Biso   1.000  C
  H14      1.0000 0.79510  0.88580  0.41080  Biso   1.000  H
  C31      1.0000 0.65400  0.76460  0.12740  Biso   1.000  C
  H15      1.0000 0.57040  0.70050  0.11140  Biso   1.000  H
  H16      1.0000 0.60390  0.81750  0.11580  Biso   1.000  H
  H17      1.0000 0.75680  0.75330  0.10170  Biso   1.000  H
  F10      1.0000 0.79600  0.35900  0.02010  Biso   1.000  F
  F11      1.0000 0.52500  0.36500  0.02070  Biso   1.000  F
  F12      1.0000 0.70100  0.50950  0.05470  Biso   1.000  F
  F13      1.0000 0.23400  0.61960  0.14870  Biso   1.000  F
  F14      1.0000 0.02900  0.68800  0.17600  Biso   1.000  F
  F15      1.0000 0.26000  0.75950  0.23300  Biso   1.000  F
  N4       1.0000 0.78480  0.89950  0.24680  Biso   1.000  N
  N5       1.0000 0.69960  0.76260  0.32290  Biso   1.000  N
  N6       1.0000 0.96940  0.99960  0.07140  Biso   1.000  N
  O5       1.0000 0.81420  0.39020  0.16340  Biso   1.000  O
  O6       1.0000 0.55760  0.44450  0.16730  Biso   1.000  O
  O7       1.0000 0.25280  0.59100  0.28550  Biso   1.000  O
  O8       1.0000 0.97200  0.60070  0.27370  Biso   1.000  O
  F16      1.0000 0.56700  0.44500  0.02900  Biso   1.000  F
  F17      1.0000 0.65700  0.31600  0.00980  Biso   1.000  F
  F18      1.0000 0.85200  0.44030  0.03970  Biso   1.000  F
  C32      1.0000 0.06200  0.83870  0.05090  Biso   1.000  C
  H18      1.0000 0.07100  0.86620  0.10490  Biso   1.000  H
  H19      1.0000 0.97200  0.77740  0.03240  Biso   1.000  H
  H20      1.0000 0.17190  0.82040  0.03510  Biso   1.000  H
  Ag16     1.0000 0.22580  0.51470  0.38080  Biso   1.000  Ag
