data_image0
_cell_length_a       11.443
_cell_length_b       9.828
_cell_length_c       19.074
_cell_angle_alpha    90
_cell_angle_beta     107.249
_cell_angle_gamma    90

_symmetry_space_group_name_H-M    "P 1"
_symmetry_int_tables_number       1

loop_
  _symmetry_equiv_pos_as_xyz
  'x, y, z'

loop_
  _atom_site_label
  _atom_site_occupancy
  _atom_site_fract_x
  _atom_site_fract_y
  _atom_site_fract_z
  _atom_site_thermal_displace_type
  _atom_site_B_iso_or_equiv
  _atom_site_type_symbol
  Cd1      1.0000 0.34985  0.31790  0.74152  Biso   1.000  Cd
  C1       1.0000 0.06870  0.25940  0.64980  Biso   1.000  C
  H1       1.0000 0.10960  0.20900  0.62160  Biso   1.000  H
  C2       1.0000 0.94380  0.25670  0.62840  Biso   1.000  C
  H2       1.0000 0.89990  0.20550  0.58670  Biso   1.000  H
  C3       1.0000 0.88240  0.32920  0.66810  Biso   1.000  C
  C4       1.0000 0.95120  0.39930  0.72800  Biso   1.000  C
  H3       1.0000 0.91220  0.45120  0.75670  Biso   1.000  H
  C5       1.0000 0.07690  0.39480  0.74690  Biso   1.000  C
  H4       1.0000 0.12270  0.44140  0.78990  Biso   1.000  H
  C6       1.0000 0.74470  0.33070  0.64410  Biso   1.000  C
  H5       1.0000 0.71620  0.39160  0.67700  Biso   1.000  H
  H6       1.0000 0.71520  0.36860  0.59380  Biso   1.000  H
  C7       1.0000 0.63680  0.11920  0.58520  Biso   1.000  C
  H7       1.0000 0.62480  0.14220  0.53520  Biso   1.000  H
  C8       1.0000 0.60290  0.00300  0.61110  Biso   1.000  C
  H8       1.0000 0.56110  0.92970  0.58170  Biso   1.000  H
  C9       1.0000 0.69080  0.12540  0.70530  Biso   1.000  C
  C10      1.0000 0.74250  0.17560  0.78110  Biso   1.000  C
  H9       1.0000 0.73200  0.10630  0.81570  Biso   1.000  H
  H10      1.0000 0.70010  0.25920  0.78750  Biso   1.000  H
  H11      1.0000 0.82990  0.19470  0.79040  Biso   1.000  H
  N1       1.0000 0.13710  0.32840  0.70780  Biso   1.000  N
  N2       1.0000 0.69160  0.19720  0.64460  Biso   1.000  N
  N3       1.0000 0.63830  0.00670  0.68640  Biso   1.000  N
  Cd2      1.0000 0.65015  0.81790  0.75848  Biso   1.000  Cd
  C11      1.0000 0.93130  0.75940  0.85020  Biso   1.000  C
  H12      1.0000 0.89040  0.70900  0.87840  Biso   1.000  H
  C12      1.0000 0.05620  0.75670  0.87160  Biso   1.000  C
  H13      1.0000 0.10010  0.70550  0.91330  Biso   1.000  H
  C13      1.0000 0.11760  0.82920  0.83190  Biso   1.000  C
  C14      1.0000 0.04880  0.89930  0.77200  Biso   1.000  C
  H14      1.0000 0.08780  0.95120  0.74330  Biso   1.000  H
  C15      1.0000 0.92310  0.89480  0.75310  Biso   1.000  C
  H15      1.0000 0.87730  0.94140  0.71010  Biso   1.000  H
  C16      1.0000 0.25530  0.83070  0.85590  Biso   1.000  C
  H16      1.0000 0.28380  0.89160  0.82300  Biso   1.000  H
  H17      1.0000 0.28480  0.86860  0.90620  Biso   1.000  H
  C17      1.0000 0.36320  0.61920  0.91480  Biso   1.000  C
  H18      1.0000 0.37520  0.64220  0.96480  Biso   1.000  H
  C18      1.0000 0.39710  0.50300  0.88890  Biso   1.000  C
  H19      1.0000 0.43890  0.42970  0.91830  Biso   1.000  H
  C19      1.0000 0.30920  0.62540  0.79470  Biso   1.000  C
  C20      1.0000 0.25750  0.67560  0.71890  Biso   1.000  C
  H20      1.0000 0.26800  0.60630  0.68430  Biso   1.000  H
  H21      1.0000 0.29990  0.75920  0.71250  Biso   1.000  H
  H22      1.0000 0.17010  0.69470  0.70960  Biso   1.000  H
  N4       1.0000 0.86290  0.82840  0.79220  Biso   1.000  N
  N5       1.0000 0.30840  0.69720  0.85540  Biso   1.000  N
  N6       1.0000 0.36170  0.50670  0.81360  Biso   1.000  N
  Cd3      1.0000 0.65015  0.68210  0.25848  Biso   1.000  Cd
  C21      1.0000 0.93130  0.74060  0.35020  Biso   1.000  C
  H23      1.0000 0.89040  0.79100  0.37840  Biso   1.000  H
  C22      1.0000 0.05620  0.74330  0.37160  Biso   1.000  C
  H24      1.0000 0.10010  0.79450  0.41330  Biso   1.000  H
  C23      1.0000 0.11760  0.67080  0.33190  Biso   1.000  C
  C24      1.0000 0.04880  0.60070  0.27200  Biso   1.000  C
  H25      1.0000 0.08780  0.54880  0.24330  Biso   1.000  H
  C25      1.0000 0.92310  0.60520  0.25310  Biso   1.000  C
  H26      1.0000 0.87730  0.55860  0.21010  Biso   1.000  H
  C26      1.0000 0.25530  0.66930  0.35590  Biso   1.000  C
  H27      1.0000 0.28380  0.60840  0.32300  Biso   1.000  H
  H28      1.0000 0.28480  0.63140  0.40620  Biso   1.000  H
  C27      1.0000 0.36320  0.88080  0.41480  Biso   1.000  C
  H29      1.0000 0.37520  0.85780  0.46480  Biso   1.000  H
  C28      1.0000 0.39710  0.99700  0.38890  Biso   1.000  C
  H30      1.0000 0.43890  0.07030  0.41830  Biso   1.000  H
  C29      1.0000 0.30920  0.87460  0.29470  Biso   1.000  C
  C30      1.0000 0.25750  0.82440  0.21890  Biso   1.000  C
  H31      1.0000 0.26800  0.89370  0.18430  Biso   1.000  H
  H32      1.0000 0.29990  0.74080  0.21250  Biso   1.000  H
  H33      1.0000 0.17010  0.80530  0.20960  Biso   1.000  H
  N7       1.0000 0.86290  0.67160  0.29220  Biso   1.000  N
  N8       1.0000 0.30840  0.80280  0.35540  Biso   1.000  N
  N9       1.0000 0.36170  0.99330  0.31360  Biso   1.000  N
  Cd4      1.0000 0.34985  0.18210  0.24152  Biso   1.000  Cd
  C31      1.0000 0.06870  0.24060  0.14980  Biso   1.000  C
  H34      1.0000 0.10960  0.29100  0.12160  Biso   1.000  H
  C32      1.0000 0.94380  0.24330  0.12840  Biso   1.000  C
  H35      1.0000 0.89990  0.29450  0.08670  Biso   1.000  H
  C33      1.0000 0.88240  0.17080  0.16810  Biso   1.000  C
  C34      1.0000 0.95120  0.10070  0.22800  Biso   1.000  C
  H36      1.0000 0.91220  0.04880  0.25670  Biso   1.000  H
  C35      1.0000 0.07690  0.10520  0.24690  Biso   1.000  C
  H37      1.0000 0.12270  0.05860  0.28990  Biso   1.000  H
  C36      1.0000 0.74470  0.16930  0.14410  Biso   1.000  C
  H38      1.0000 0.71620  0.10840  0.17700  Biso   1.000  H
  H39      1.0000 0.71520  0.13140  0.09380  Biso   1.000  H
  C37      1.0000 0.63680  0.38080  0.08520  Biso   1.000  C
  H40      1.0000 0.62480  0.35780  0.03520  Biso   1.000  H
  C38      1.0000 0.60290  0.49700  0.11110  Biso   1.000  C
  H41      1.0000 0.56110  0.57030  0.08170  Biso   1.000  H
  C39      1.0000 0.69080  0.37460  0.20530  Biso   1.000  C
  C40      1.0000 0.74250  0.32440  0.28110  Biso   1.000  C
  H42      1.0000 0.73200  0.39370  0.31570  Biso   1.000  H
  H43      1.0000 0.70010  0.24080  0.28750  Biso   1.000  H
  H44      1.0000 0.82990  0.30530  0.29040  Biso   1.000  H
  N10      1.0000 0.13710  0.17160  0.20780  Biso   1.000  N
  N11      1.0000 0.69160  0.30280  0.14460  Biso   1.000  N
  N12      1.0000 0.63830  0.49330  0.18640  Biso   1.000  N
