data_image0
_cell_length_a       13.6234
_cell_length_b       24.7644
_cell_length_c       11.5519
_cell_angle_alpha    90
_cell_angle_beta     96.836
_cell_angle_gamma    90

_symmetry_space_group_name_H-M    "P 1"
_symmetry_int_tables_number       1

loop_
  _symmetry_equiv_pos_as_xyz
  'x, y, z'

loop_
  _atom_site_label
  _atom_site_occupancy
  _atom_site_fract_x
  _atom_site_fract_y
  _atom_site_fract_z
  _atom_site_thermal_displace_type
  _atom_site_B_iso_or_equiv
  _atom_site_type_symbol
  Cu1      1.0000 0.03462  0.24539  0.88156  Biso   1.000  Cu
  Cu2      1.0000 0.47485  0.45707  0.22361  Biso   1.000  Cu
  C1       1.0000 0.02610  0.25220  0.62910  Biso   1.000  C
  H1       1.0000 0.00360  0.28770  0.62830  Biso   1.000  H
  C2       1.0000 0.07800  0.17690  0.69020  Biso   1.000  C
  H2       1.0000 0.10000  0.14820  0.73840  Biso   1.000  H
  C3       1.0000 0.10180  0.13390  0.49560  Biso   1.000  C
  H3       1.0000 0.06390  0.10180  0.50870  Biso   1.000  H
  H4       1.0000 0.08310  0.14550  0.41580  Biso   1.000  H
  C4       1.0000 0.21100  0.11980  0.51120  Biso   1.000  C
  H5       1.0000 0.22200  0.09110  0.45720  Biso   1.000  H
  H6       1.0000 0.22810  0.10580  0.58950  Biso   1.000  H
  C5       1.0000 0.28000  0.16550  0.49290  Biso   1.000  C
  H7       1.0000 0.34640  0.15460  0.52350  Biso   1.000  H
  H8       1.0000 0.26250  0.19600  0.53910  Biso   1.000  H
  C6       1.0000 0.28220  0.18420  0.37290  Biso   1.000  C
  H9       1.0000 0.30140  0.15540  0.32330  Biso   1.000  H
  H10      1.0000 0.21860  0.19840  0.34030  Biso   1.000  H
  C7       1.0000 0.35960  0.22800  0.38800  Biso   1.000  C
  H11      1.0000 0.42280  0.21270  0.41970  Biso   1.000  H
  H12      1.0000 0.34110  0.25500  0.44220  Biso   1.000  H
  C8       1.0000 0.36800  0.25230  0.27600  Biso   1.000  C
  H13      1.0000 0.39660  0.22710  0.22580  Biso   1.000  H
  H14      1.0000 0.30290  0.26290  0.23900  Biso   1.000  H
  C9       1.0000 0.40540  0.35360  0.28050  Biso   1.000  C
  H15      1.0000 0.33960  0.36450  0.27040  Biso   1.000  H
  C10      1.0000 0.55850  0.35180  0.30600  Biso   1.000  C
  H16      1.0000 0.62360  0.36390  0.31520  Biso   1.000  H
  C11      1.0000 0.37160  0.53590  0.07000  Biso   1.000  C
  H17      1.0000 0.31210  0.51720  0.06310  Biso   1.000  H
  C12      1.0000 0.51650  0.56120  0.11730  Biso   1.000  C
  H18      1.0000 0.58130  0.56210  0.15340  Biso   1.000  H
  C13      1.0000 0.31440  0.61720  0.94980  Biso   1.000  C
  H19      1.0000 0.34530  0.63500  0.88870  Biso   1.000  H
  H20      1.0000 0.26030  0.59530  0.91330  Biso   1.000  H
  C14      1.0000 0.27490  0.65900  0.02690  Biso   1.000  C
  H21      1.0000 0.32980  0.68010  0.06420  Biso   1.000  H
  H22      1.0000 0.24440  0.64070  0.08770  Biso   1.000  H
  C15      1.0000 0.20260  0.69560  0.96470  Biso   1.000  C
  H23      1.0000 0.14950  0.67410  0.92470  Biso   1.000  H
  H24      1.0000 0.17430  0.71760  0.02180  Biso   1.000  H
  C16      1.0000 0.24170  0.73290  0.87650  Biso   1.000  C
  H25      1.0000 0.18610  0.75170  0.83420  Biso   1.000  H
  H26      1.0000 0.27170  0.71100  0.82060  Biso   1.000  H
  C17      1.0000 0.31660  0.77440  0.92690  Biso   1.000  C
  H27      1.0000 0.29060  0.79440  0.98880  Biso   1.000  H
  H28      1.0000 0.37700  0.75650  0.95940  Biso   1.000  H
  C18      1.0000 0.33790  0.81290  0.82960  Biso   1.000  C
  H29      1.0000 0.27690  0.83010  0.79680  Biso   1.000  H
  H30      1.0000 0.36360  0.79250  0.76800  Biso   1.000  H
  C19      1.0000 0.39470  0.90520  0.90580  Biso   1.000  C
  H31      1.0000 0.33270  0.92120  0.90240  Biso   1.000  H
  C20      1.0000 0.54670  0.89000  0.92900  Biso   1.000  C
  H32      1.0000 0.61440  0.89540  0.94690  Biso   1.000  H
  N1       1.0000 0.04460  0.22280  0.72720  Biso   1.000  N
  N2       1.0000 0.04270  0.22600  0.53460  Biso   1.000  N
  N3       1.0000 0.07650  0.17680  0.57500  Biso   1.000  N
  N4       1.0000 0.43560  0.30300  0.30070  Biso   1.000  N
  N5       1.0000 0.53540  0.30200  0.31970  Biso   1.000  N
  N6       1.0000 0.47990  0.38560  0.27680  Biso   1.000  N
  N7       1.0000 0.45340  0.51990  0.13290  Biso   1.000  N
  N8       1.0000 0.38620  0.58280  0.01720  Biso   1.000  N
  N9       1.0000 0.47900  0.59970  0.04760  Biso   1.000  N
  N10      1.0000 0.41100  0.85520  0.87410  Biso   1.000  N
  N11      1.0000 0.50990  0.84480  0.88910  Biso   1.000  N
  N12      1.0000 0.47850  0.92940  0.94300  Biso   1.000  N
  Cu3      1.0000 0.96538  0.74539  0.61844  Biso   1.000  Cu
  Cu4      1.0000 0.52515  0.95707  0.27639  Biso   1.000  Cu
  C21      1.0000 0.97390  0.75220  0.87090  Biso   1.000  C
  H33      1.0000 0.99640  0.78770  0.87170  Biso   1.000  H
  C22      1.0000 0.92200  0.67690  0.80980  Biso   1.000  C
  H34      1.0000 0.90000  0.64820  0.76160  Biso   1.000  H
  C23      1.0000 0.89820  0.63390  0.00440  Biso   1.000  C
  H35      1.0000 0.93610  0.60180  0.99130  Biso   1.000  H
  H36      1.0000 0.91690  0.64550  0.08420  Biso   1.000  H
  C24      1.0000 0.78900  0.61980  0.98880  Biso   1.000  C
  H37      1.0000 0.77800  0.59110  0.04280  Biso   1.000  H
  H38      1.0000 0.77190  0.60580  0.91050  Biso   1.000  H
  C25      1.0000 0.72000  0.66550  0.00710  Biso   1.000  C
  H39      1.0000 0.65360  0.65460  0.97650  Biso   1.000  H
  H40      1.0000 0.73750  0.69600  0.96090  Biso   1.000  H
  C26      1.0000 0.71780  0.68420  0.12710  Biso   1.000  C
  H41      1.0000 0.69860  0.65540  0.17670  Biso   1.000  H
  H42      1.0000 0.78140  0.69840  0.15970  Biso   1.000  H
  C27      1.0000 0.64040  0.72800  0.11200  Biso   1.000  C
  H43      1.0000 0.57720  0.71270  0.08030  Biso   1.000  H
  H44      1.0000 0.65890  0.75500  0.05780  Biso   1.000  H
  C28      1.0000 0.63200  0.75230  0.22400  Biso   1.000  C
  H45      1.0000 0.60340  0.72710  0.27420  Biso   1.000  H
  H46      1.0000 0.69710  0.76290  0.26100  Biso   1.000  H
  C29      1.0000 0.59460  0.85360  0.21950  Biso   1.000  C
  H47      1.0000 0.66040  0.86450  0.22960  Biso   1.000  H
  C30      1.0000 0.44150  0.85180  0.19400  Biso   1.000  C
  H48      1.0000 0.37640  0.86390  0.18480  Biso   1.000  H
  C31      1.0000 0.62840  0.03590  0.43000  Biso   1.000  C
  H49      1.0000 0.68790  0.01720  0.43690  Biso   1.000  H
  C32      1.0000 0.48350  0.06120  0.38270  Biso   1.000  C
  H50      1.0000 0.41870  0.06210  0.34660  Biso   1.000  H
  C33      1.0000 0.68560  0.11720  0.55020  Biso   1.000  C
  H51      1.0000 0.65470  0.13500  0.61130  Biso   1.000  H
  H52      1.0000 0.73970  0.09530  0.58670  Biso   1.000  H
  C34      1.0000 0.72510  0.15900  0.47310  Biso   1.000  C
  H53      1.0000 0.67020  0.18010  0.43580  Biso   1.000  H
  H54      1.0000 0.75560  0.14070  0.41230  Biso   1.000  H
  C35      1.0000 0.79740  0.19560  0.53530  Biso   1.000  C
  H55      1.0000 0.85050  0.17410  0.57530  Biso   1.000  H
  H56      1.0000 0.82570  0.21760  0.47820  Biso   1.000  H
  C36      1.0000 0.75830  0.23290  0.62350  Biso   1.000  C
  H57      1.0000 0.81390  0.25170  0.66580  Biso   1.000  H
  H58      1.0000 0.72830  0.21100  0.67940  Biso   1.000  H
  C37      1.0000 0.68340  0.27440  0.57310  Biso   1.000  C
  H59      1.0000 0.70940  0.29440  0.51120  Biso   1.000  H
  H60      1.0000 0.62300  0.25650  0.54060  Biso   1.000  H
  C38      1.0000 0.66210  0.31290  0.67040  Biso   1.000  C
  H61      1.0000 0.72310  0.33010  0.70320  Biso   1.000  H
  H62      1.0000 0.63640  0.29250  0.73200  Biso   1.000  H
  C39      1.0000 0.60530  0.40520  0.59420  Biso   1.000  C
  H63      1.0000 0.66730  0.42120  0.59760  Biso   1.000  H
  C40      1.0000 0.45330  0.39000  0.57100  Biso   1.000  C
  H64      1.0000 0.38560  0.39540  0.55310  Biso   1.000  H
  N13      1.0000 0.95540  0.72280  0.77280  Biso   1.000  N
  N14      1.0000 0.95730  0.72600  0.96540  Biso   1.000  N
  N15      1.0000 0.92350  0.67680  0.92500  Biso   1.000  N
  N16      1.0000 0.56440  0.80300  0.19930  Biso   1.000  N
  N17      1.0000 0.46460  0.80200  0.18030  Biso   1.000  N
  N18      1.0000 0.52010  0.88560  0.22320  Biso   1.000  N
  N19      1.0000 0.54660  0.01990  0.36710  Biso   1.000  N
  N20      1.0000 0.61380  0.08280  0.48280  Biso   1.000  N
  N21      1.0000 0.52100  0.09970  0.45240  Biso   1.000  N
  N22      1.0000 0.58900  0.35520  0.62590  Biso   1.000  N
  N23      1.0000 0.49010  0.34480  0.61090  Biso   1.000  N
  N24      1.0000 0.52150  0.42940  0.55700  Biso   1.000  N
  Cu5      1.0000 0.96538  0.75461  0.11844  Biso   1.000  Cu
  Cu6      1.0000 0.52515  0.54293  0.77639  Biso   1.000  Cu
  C41      1.0000 0.97390  0.74780  0.37090  Biso   1.000  C
  H65      1.0000 0.99640  0.71230  0.37170  Biso   1.000  H
  C42      1.0000 0.92200  0.82310  0.30980  Biso   1.000  C
  H66      1.0000 0.90000  0.85180  0.26160  Biso   1.000  H
  C43      1.0000 0.89820  0.86610  0.50440  Biso   1.000  C
  H67      1.0000 0.93610  0.89820  0.49130  Biso   1.000  H
  H68      1.0000 0.91690  0.85450  0.58420  Biso   1.000  H
  C44      1.0000 0.78900  0.88020  0.48880  Biso   1.000  C
  H69      1.0000 0.77800  0.90890  0.54280  Biso   1.000  H
  H70      1.0000 0.77190  0.89420  0.41050  Biso   1.000  H
  C45      1.0000 0.72000  0.83450  0.50710  Biso   1.000  C
  H71      1.0000 0.65360  0.84540  0.47650  Biso   1.000  H
  H72      1.0000 0.73750  0.80400  0.46090  Biso   1.000  H
  C46      1.0000 0.71780  0.81580  0.62710  Biso   1.000  C
  H73      1.0000 0.69860  0.84460  0.67670  Biso   1.000  H
  H74      1.0000 0.78140  0.80160  0.65970  Biso   1.000  H
  C47      1.0000 0.64040  0.77200  0.61200  Biso   1.000  C
  H75      1.0000 0.57720  0.78730  0.58030  Biso   1.000  H
  H76      1.0000 0.65890  0.74500  0.55780  Biso   1.000  H
  C48      1.0000 0.63200  0.74770  0.72400  Biso   1.000  C
  H77      1.0000 0.60340  0.77290  0.77420  Biso   1.000  H
  H78      1.0000 0.69710  0.73710  0.76100  Biso   1.000  H
  C49      1.0000 0.59460  0.64640  0.71950  Biso   1.000  C
  H79      1.0000 0.66040  0.63550  0.72960  Biso   1.000  H
  C50      1.0000 0.44150  0.64820  0.69400  Biso   1.000  C
  H80      1.0000 0.37640  0.63610  0.68480  Biso   1.000  H
  C51      1.0000 0.62840  0.46410  0.93000  Biso   1.000  C
  H81      1.0000 0.68790  0.48280  0.93690  Biso   1.000  H
  C52      1.0000 0.48350  0.43880  0.88270  Biso   1.000  C
  H82      1.0000 0.41870  0.43790  0.84660  Biso   1.000  H
  C53      1.0000 0.68560  0.38280  0.05020  Biso   1.000  C
  H83      1.0000 0.65470  0.36500  0.11130  Biso   1.000  H
  H84      1.0000 0.73970  0.40470  0.08670  Biso   1.000  H
  C54      1.0000 0.72510  0.34100  0.97310  Biso   1.000  C
  H85      1.0000 0.67020  0.31990  0.93580  Biso   1.000  H
  H86      1.0000 0.75560  0.35930  0.91230  Biso   1.000  H
  C55      1.0000 0.79740  0.30440  0.03530  Biso   1.000  C
  H87      1.0000 0.85050  0.32590  0.07530  Biso   1.000  H
  H88      1.0000 0.82570  0.28240  0.97820  Biso   1.000  H
  C56      1.0000 0.75830  0.26710  0.12350  Biso   1.000  C
  H89      1.0000 0.81390  0.24830  0.16580  Biso   1.000  H
  H90      1.0000 0.72830  0.28900  0.17940  Biso   1.000  H
  C57      1.0000 0.68340  0.22560  0.07310  Biso   1.000  C
  H91      1.0000 0.70940  0.20560  0.01120  Biso   1.000  H
  H92      1.0000 0.62300  0.24350  0.04060  Biso   1.000  H
  C58      1.0000 0.66210  0.18710  0.17040  Biso   1.000  C
  H93      1.0000 0.72310  0.16990  0.20320  Biso   1.000  H
  H94      1.0000 0.63640  0.20750  0.23200  Biso   1.000  H
  C59      1.0000 0.60530  0.09480  0.09420  Biso   1.000  C
  H95      1.0000 0.66730  0.07880  0.09760  Biso   1.000  H
  C60      1.0000 0.45330  0.11000  0.07100  Biso   1.000  C
  H96      1.0000 0.38560  0.10460  0.05310  Biso   1.000  H
  N25      1.0000 0.95540  0.77720  0.27280  Biso   1.000  N
  N26      1.0000 0.95730  0.77400  0.46540  Biso   1.000  N
  N27      1.0000 0.92350  0.82320  0.42500  Biso   1.000  N
  N28      1.0000 0.56440  0.69700  0.69930  Biso   1.000  N
  N29      1.0000 0.46460  0.69800  0.68030  Biso   1.000  N
  N30      1.0000 0.52010  0.61440  0.72320  Biso   1.000  N
  N31      1.0000 0.54660  0.48010  0.86710  Biso   1.000  N
  N32      1.0000 0.61380  0.41720  0.98280  Biso   1.000  N
  N33      1.0000 0.52100  0.40030  0.95240  Biso   1.000  N
  N34      1.0000 0.58900  0.14480  0.12590  Biso   1.000  N
  N35      1.0000 0.49010  0.15520  0.11090  Biso   1.000  N
  N36      1.0000 0.52150  0.07060  0.05700  Biso   1.000  N
  Cu7      1.0000 0.03462  0.25461  0.38156  Biso   1.000  Cu
  Cu8      1.0000 0.47485  0.04293  0.72361  Biso   1.000  Cu
  C61      1.0000 0.02610  0.24780  0.12910  Biso   1.000  C
  H97      1.0000 0.00360  0.21230  0.12830  Biso   1.000  H
  C62      1.0000 0.07800  0.32310  0.19020  Biso   1.000  C
  H98      1.0000 0.10000  0.35180  0.23840  Biso   1.000  H
  C63      1.0000 0.10180  0.36610  0.99560  Biso   1.000  C
  H99      1.0000 0.06390  0.39820  0.00870  Biso   1.000  H
  H100     1.0000 0.08310  0.35450  0.91580  Biso   1.000  H
  C64      1.0000 0.21100  0.38020  0.01120  Biso   1.000  C
  H101     1.0000 0.22200  0.40890  0.95720  Biso   1.000  H
  H102     1.0000 0.22810  0.39420  0.08950  Biso   1.000  H
  C65      1.0000 0.28000  0.33450  0.99290  Biso   1.000  C
  H103     1.0000 0.34640  0.34540  0.02350  Biso   1.000  H
  H104     1.0000 0.26250  0.30400  0.03910  Biso   1.000  H
  C66      1.0000 0.28220  0.31580  0.87290  Biso   1.000  C
  H105     1.0000 0.30140  0.34460  0.82330  Biso   1.000  H
  H106     1.0000 0.21860  0.30160  0.84030  Biso   1.000  H
  C67      1.0000 0.35960  0.27200  0.88800  Biso   1.000  C
  H107     1.0000 0.42280  0.28730  0.91970  Biso   1.000  H
  H108     1.0000 0.34110  0.24500  0.94220  Biso   1.000  H
  C68      1.0000 0.36800  0.24770  0.77600  Biso   1.000  C
  H109     1.0000 0.39660  0.27290  0.72580  Biso   1.000  H
  H110     1.0000 0.30290  0.23710  0.73900  Biso   1.000  H
  C69      1.0000 0.40540  0.14640  0.78050  Biso   1.000  C
  H111     1.0000 0.33960  0.13550  0.77040  Biso   1.000  H
  C70      1.0000 0.55850  0.14820  0.80600  Biso   1.000  C
  H112     1.0000 0.62360  0.13610  0.81520  Biso   1.000  H
  C71      1.0000 0.37160  0.96410  0.57000  Biso   1.000  C
  H113     1.0000 0.31210  0.98280  0.56310  Biso   1.000  H
  C72      1.0000 0.51650  0.93880  0.61730  Biso   1.000  C
  H114     1.0000 0.58130  0.93790  0.65340  Biso   1.000  H
  C73      1.0000 0.31440  0.88280  0.44980  Biso   1.000  C
  H115     1.0000 0.34530  0.86500  0.38870  Biso   1.000  H
  H116     1.0000 0.26030  0.90470  0.41330  Biso   1.000  H
  C74      1.0000 0.27490  0.84100  0.52690  Biso   1.000  C
  H117     1.0000 0.32980  0.81990  0.56420  Biso   1.000  H
  H118     1.0000 0.24440  0.85930  0.58770  Biso   1.000  H
  C75      1.0000 0.20260  0.80440  0.46470  Biso   1.000  C
  H119     1.0000 0.14950  0.82590  0.42470  Biso   1.000  H
  H120     1.0000 0.17430  0.78240  0.52180  Biso   1.000  H
  C76      1.0000 0.24170  0.76710  0.37650  Biso   1.000  C
  H121     1.0000 0.18610  0.74830  0.33420  Biso   1.000  H
  H122     1.0000 0.27170  0.78900  0.32060  Biso   1.000  H
  C77      1.0000 0.31660  0.72560  0.42690  Biso   1.000  C
  H123     1.0000 0.29060  0.70560  0.48880  Biso   1.000  H
  H124     1.0000 0.37700  0.74350  0.45940  Biso   1.000  H
  C78      1.0000 0.33790  0.68710  0.32960  Biso   1.000  C
  H125     1.0000 0.27690  0.66990  0.29680  Biso   1.000  H
  H126     1.0000 0.36360  0.70750  0.26800  Biso   1.000  H
  C79      1.0000 0.39470  0.59480  0.40580  Biso   1.000  C
  H127     1.0000 0.33270  0.57880  0.40240  Biso   1.000  H
  C80      1.0000 0.54670  0.61000  0.42900  Biso   1.000  C
  H128     1.0000 0.61440  0.60460  0.44690  Biso   1.000  H
  N37      1.0000 0.04460  0.27720  0.22720  Biso   1.000  N
  N38      1.0000 0.04270  0.27400  0.03460  Biso   1.000  N
  N39      1.0000 0.07650  0.32320  0.07500  Biso   1.000  N
  N40      1.0000 0.43560  0.19700  0.80070  Biso   1.000  N
  N41      1.0000 0.53540  0.19800  0.81970  Biso   1.000  N
  N42      1.0000 0.47990  0.11440  0.77680  Biso   1.000  N
  N43      1.0000 0.45340  0.98010  0.63290  Biso   1.000  N
  N44      1.0000 0.38620  0.91720  0.51720  Biso   1.000  N
  N45      1.0000 0.47900  0.90030  0.54760  Biso   1.000  N
  N46      1.0000 0.41100  0.64480  0.37410  Biso   1.000  N
  N47      1.0000 0.50990  0.65520  0.38910  Biso   1.000  N
  N48      1.0000 0.47850  0.57060  0.44300  Biso   1.000  N
  Cu9      1.0000 0.50000  0.00000  0.00000  Biso   1.000  Cu
  Cu10     1.0000 0.50000  0.50000  0.50000  Biso   1.000  Cu
