data_image0
_cell_length_a       7.046
_cell_length_b       13.3011
_cell_length_c       8.0848
_cell_angle_alpha    90
_cell_angle_beta     90
_cell_angle_gamma    90

_symmetry_space_group_name_H-M    "P 1"
_symmetry_int_tables_number       1

loop_
  _symmetry_equiv_pos_as_xyz
  'x, y, z'

loop_
  _atom_site_label
  _atom_site_occupancy
  _atom_site_fract_x
  _atom_site_fract_y
  _atom_site_fract_z
  _atom_site_thermal_displace_type
  _atom_site_B_iso_or_equiv
  _atom_site_type_symbol
  Cu1      1.0000 0.24677  0.16286  0.76296  Biso   1.000  Cu
  O1       1.0000 0.13810  0.27942  0.88374  Biso   1.000  O
  O2       1.0000 0.96010  0.34644  0.07859  Biso   1.000  O
  C1       1.0000 0.01940  0.27295  0.99790  Biso   1.000  C
  H1       1.0000 0.97150  0.20820  0.02490  Biso   1.000  H
  Cu2      1.0000 0.74677  0.33714  0.23704  Biso   1.000  Cu
  O3       1.0000 0.63810  0.22058  0.11626  Biso   1.000  O
  O4       1.0000 0.46010  0.15356  0.92141  Biso   1.000  O
  C2       1.0000 0.51940  0.22705  0.00210  Biso   1.000  C
  H2       1.0000 0.47150  0.29180  0.97510  Biso   1.000  H
  Cu3      1.0000 0.25323  0.83714  0.26296  Biso   1.000  Cu
  O5       1.0000 0.36190  0.72058  0.38374  Biso   1.000  O
  O6       1.0000 0.53990  0.65356  0.57859  Biso   1.000  O
  C3       1.0000 0.48060  0.72705  0.49790  Biso   1.000  C
  H3       1.0000 0.52850  0.79180  0.52490  Biso   1.000  H
  Cu4      1.0000 0.75323  0.66286  0.73704  Biso   1.000  Cu
  O7       1.0000 0.86190  0.77942  0.61626  Biso   1.000  O
  O8       1.0000 0.03990  0.84644  0.42141  Biso   1.000  O
  C4       1.0000 0.98060  0.77295  0.50210  Biso   1.000  C
  H4       1.0000 0.02850  0.70820  0.47510  Biso   1.000  H
