data_image0
_cell_length_a       9.3972
_cell_length_b       9.5103
_cell_length_c       15.6094
_cell_angle_alpha    90
_cell_angle_beta     90
_cell_angle_gamma    90

_symmetry_space_group_name_H-M    "P 1"
_symmetry_int_tables_number       1

loop_
  _symmetry_equiv_pos_as_xyz
  'x, y, z'

loop_
  _atom_site_label
  _atom_site_occupancy
  _atom_site_fract_x
  _atom_site_fract_y
  _atom_site_fract_z
  _atom_site_thermal_displace_type
  _atom_site_B_iso_or_equiv
  _atom_site_type_symbol
  Bi1      1.0000 0.40421  0.60740  0.34696  Biso   1.000  Bi
  Bi2      1.0000 0.34620  0.37248  0.15713  Biso   1.000  Bi
  O1       1.0000 0.62560  0.72110  0.32190  Biso   1.000  O
  O2       1.0000 0.82860  0.70310  0.25100  Biso   1.000  O
  O3       1.0000 0.49310  0.53190  0.22530  Biso   1.000  O
  O4       1.0000 0.11210  0.27720  0.18110  Biso   1.000  O
  O5       1.0000 0.91650  0.29190  0.26030  Biso   1.000  O
  O6       1.0000 0.24820  0.47070  0.27360  Biso   1.000  O
  C1       1.0000 0.70060  0.66710  0.26370  Biso   1.000  C
  C2       1.0000 0.63800  0.55650  0.20640  Biso   1.000  C
  C3       1.0000 0.04290  0.32630  0.24450  Biso   1.000  C
  C4       1.0000 0.11250  0.43050  0.30340  Biso   1.000  C
  H1       1.0000 0.69130  0.46860  0.21470  Biso   1.000  H
  H2       1.0000 0.64730  0.58780  0.14710  Biso   1.000  H
  H3       1.0000 0.12080  0.38910  0.35980  Biso   1.000  H
  H4       1.0000 0.05240  0.51370  0.30740  Biso   1.000  H
  Bi3      1.0000 0.90421  0.89260  0.34696  Biso   1.000  Bi
  Bi4      1.0000 0.84620  0.12752  0.15713  Biso   1.000  Bi
  O7       1.0000 0.12560  0.77890  0.32190  Biso   1.000  O
  O8       1.0000 0.32860  0.79690  0.25100  Biso   1.000  O
  O9       1.0000 0.99310  0.96810  0.22530  Biso   1.000  O
  O10      1.0000 0.61210  0.22280  0.18110  Biso   1.000  O
  O11      1.0000 0.41650  0.20810  0.26030  Biso   1.000  O
  O12      1.0000 0.74820  0.02930  0.27360  Biso   1.000  O
  C5       1.0000 0.20060  0.83290  0.26370  Biso   1.000  C
  C6       1.0000 0.13800  0.94350  0.20640  Biso   1.000  C
  C7       1.0000 0.54290  0.17370  0.24450  Biso   1.000  C
  C8       1.0000 0.61250  0.06950  0.30340  Biso   1.000  C
  H5       1.0000 0.19130  0.03140  0.21470  Biso   1.000  H
  H6       1.0000 0.14730  0.91220  0.14710  Biso   1.000  H
  H7       1.0000 0.62080  0.11090  0.35980  Biso   1.000  H
  H8       1.0000 0.55240  0.98630  0.30740  Biso   1.000  H
  Bi5      1.0000 0.59579  0.39260  0.84696  Biso   1.000  Bi
  Bi6      1.0000 0.65380  0.62752  0.65713  Biso   1.000  Bi
  O13      1.0000 0.37440  0.27890  0.82190  Biso   1.000  O
  O14      1.0000 0.17140  0.29690  0.75100  Biso   1.000  O
  O15      1.0000 0.50690  0.46810  0.72530  Biso   1.000  O
  O16      1.0000 0.88790  0.72280  0.68110  Biso   1.000  O
  O17      1.0000 0.08350  0.70810  0.76030  Biso   1.000  O
  O18      1.0000 0.75180  0.52930  0.77360  Biso   1.000  O
  C9       1.0000 0.29940  0.33290  0.76370  Biso   1.000  C
  C10      1.0000 0.36200  0.44350  0.70640  Biso   1.000  C
  C11      1.0000 0.95710  0.67370  0.74450  Biso   1.000  C
  C12      1.0000 0.88750  0.56950  0.80340  Biso   1.000  C
  H9       1.0000 0.30870  0.53140  0.71470  Biso   1.000  H
  H10      1.0000 0.35270  0.41220  0.64710  Biso   1.000  H
  H11      1.0000 0.87920  0.61090  0.85980  Biso   1.000  H
  H12      1.0000 0.94760  0.48630  0.80740  Biso   1.000  H
  Bi7      1.0000 0.09579  0.10740  0.84696  Biso   1.000  Bi
  Bi8      1.0000 0.15380  0.87248  0.65713  Biso   1.000  Bi
  O19      1.0000 0.87440  0.22110  0.82190  Biso   1.000  O
  O20      1.0000 0.67140  0.20310  0.75100  Biso   1.000  O
  O21      1.0000 0.00690  0.03190  0.72530  Biso   1.000  O
  O22      1.0000 0.38790  0.77720  0.68110  Biso   1.000  O
  O23      1.0000 0.58350  0.79190  0.76030  Biso   1.000  O
  O24      1.0000 0.25180  0.97070  0.77360  Biso   1.000  O
  C13      1.0000 0.79940  0.16710  0.76370  Biso   1.000  C
  C14      1.0000 0.86200  0.05650  0.70640  Biso   1.000  C
  C15      1.0000 0.45710  0.82630  0.74450  Biso   1.000  C
  C16      1.0000 0.38750  0.93050  0.80340  Biso   1.000  C
  H13      1.0000 0.80870  0.96860  0.71470  Biso   1.000  H
  H14      1.0000 0.85270  0.08780  0.64710  Biso   1.000  H
  H15      1.0000 0.37920  0.88910  0.85980  Biso   1.000  H
  H16      1.0000 0.44760  0.01370  0.80740  Biso   1.000  H
