data_image0
_cell_length_a       14.122
_cell_length_b       16.18
_cell_length_c       20.037
_cell_angle_alpha    90
_cell_angle_beta     90.35
_cell_angle_gamma    90

_symmetry_space_group_name_H-M    "P 1"
_symmetry_int_tables_number       1

loop_
  _symmetry_equiv_pos_as_xyz
  'x, y, z'

loop_
  _atom_site_label
  _atom_site_occupancy
  _atom_site_fract_x
  _atom_site_fract_y
  _atom_site_fract_z
  _atom_site_thermal_displace_type
  _atom_site_B_iso_or_equiv
  _atom_site_type_symbol
  Ag1      1.0000 0.15383  0.32383  0.20983  Biso   1.000  Ag
  Ag2      1.0000 0.64346  0.57881  0.29368  Biso   1.000  Ag
  C1       1.0000 0.21730  0.68590  0.20360  Biso   1.000  C
  H1       1.0000 0.27840  0.68070  0.18100  Biso   1.000  H
  C2       1.0000 0.14250  0.64680  0.17240  Biso   1.000  C
  H2       1.0000 0.14100  0.64430  0.12600  Biso   1.000  H
  C3       1.0000 0.06670  0.60980  0.20940  Biso   1.000  C
  C4       1.0000 0.07500  0.61830  0.28000  Biso   1.000  C
  C5       1.0000 0.14390  0.65960  0.31450  Biso   1.000  C
  H3       1.0000 0.14210  0.66750  0.36040  Biso   1.000  H
  C6       1.0000 0.22220  0.69090  0.27190  Biso   1.000  C
  H4       1.0000 0.27530  0.71430  0.29190  Biso   1.000  H
  C7       1.0000 0.97870  0.56910  0.18500  Biso   1.000  C
  H5       1.0000 0.97570  0.56580  0.13620  Biso   1.000  H
  C8       1.0000 0.89380  0.61280  0.21440  Biso   1.000  C
  C9       1.0000 0.82250  0.64370  0.18020  Biso   1.000  C
  H6       1.0000 0.81770  0.63790  0.13410  Biso   1.000  H
  C10      1.0000 0.75260  0.68680  0.21800  Biso   1.000  C
  H7       1.0000 0.70270  0.71210  0.19530  Biso   1.000  H
  C11      1.0000 0.75610  0.69230  0.28530  Biso   1.000  C
  H8       1.0000 0.70860  0.72040  0.30780  Biso   1.000  H
  C12      1.0000 0.82940  0.65680  0.32090  Biso   1.000  C
  H9       1.0000 0.83110  0.66030  0.36720  Biso   1.000  H
  C13      1.0000 0.90360  0.61380  0.28530  Biso   1.000  C
  C14      1.0000 0.98790  0.57820  0.31240  Biso   1.000  C
  H10      1.0000 0.99000  0.58260  0.36120  Biso   1.000  H
  C15      1.0000 0.98720  0.48650  0.28880  Biso   1.000  C
  C16      1.0000 0.98790  0.41300  0.33070  Biso   1.000  C
  H11      1.0000 0.98770  0.41660  0.37700  Biso   1.000  H
  C17      1.0000 0.98880  0.33930  0.29890  Biso   1.000  C
  H12      1.0000 0.99230  0.29070  0.32360  Biso   1.000  H
  C18      1.0000 0.98460  0.33540  0.23080  Biso   1.000  C
  H13      1.0000 0.98440  0.28310  0.21140  Biso   1.000  H
  C19      1.0000 0.98020  0.40650  0.18610  Biso   1.000  C
  H14      1.0000 0.97610  0.40080  0.14000  Biso   1.000  H
  C20      1.0000 0.98260  0.48490  0.21760  Biso   1.000  C
  Ag3      1.0000 0.84617  0.82383  0.79017  Biso   1.000  Ag
  Ag4      1.0000 0.35654  0.07881  0.70632  Biso   1.000  Ag
  C21      1.0000 0.78270  0.18590  0.79640  Biso   1.000  C
  H15      1.0000 0.72160  0.18070  0.81900  Biso   1.000  H
  C22      1.0000 0.85750  0.14680  0.82760  Biso   1.000  C
  H16      1.0000 0.85900  0.14430  0.87400  Biso   1.000  H
  C23      1.0000 0.93330  0.10980  0.79060  Biso   1.000  C
  C24      1.0000 0.92500  0.11830  0.72000  Biso   1.000  C
  C25      1.0000 0.85610  0.15960  0.68550  Biso   1.000  C
  H17      1.0000 0.85790  0.16750  0.63960  Biso   1.000  H
  C26      1.0000 0.77780  0.19090  0.72810  Biso   1.000  C
  H18      1.0000 0.72470  0.21430  0.70810  Biso   1.000  H
  C27      1.0000 0.02130  0.06910  0.81500  Biso   1.000  C
  H19      1.0000 0.02430  0.06580  0.86380  Biso   1.000  H
  C28      1.0000 0.10620  0.11280  0.78560  Biso   1.000  C
  C29      1.0000 0.17750  0.14370  0.81980  Biso   1.000  C
  H20      1.0000 0.18230  0.13790  0.86590  Biso   1.000  H
  C30      1.0000 0.24740  0.18680  0.78200  Biso   1.000  C
  H21      1.0000 0.29730  0.21210  0.80470  Biso   1.000  H
  C31      1.0000 0.24390  0.19230  0.71470  Biso   1.000  C
  H22      1.0000 0.29140  0.22040  0.69220  Biso   1.000  H
  C32      1.0000 0.17060  0.15680  0.67910  Biso   1.000  C
  H23      1.0000 0.16890  0.16030  0.63280  Biso   1.000  H
  C33      1.0000 0.09640  0.11380  0.71470  Biso   1.000  C
  C34      1.0000 0.01210  0.07820  0.68760  Biso   1.000  C
  H24      1.0000 0.01000  0.08260  0.63880  Biso   1.000  H
  C35      1.0000 0.01280  0.98650  0.71120  Biso   1.000  C
  C36      1.0000 0.01210  0.91300  0.66930  Biso   1.000  C
  H25      1.0000 0.01230  0.91660  0.62300  Biso   1.000  H
  C37      1.0000 0.01120  0.83930  0.70110  Biso   1.000  C
  H26      1.0000 0.00770  0.79070  0.67640  Biso   1.000  H
  C38      1.0000 0.01540  0.83540  0.76920  Biso   1.000  C
  H27      1.0000 0.01560  0.78310  0.78860  Biso   1.000  H
  C39      1.0000 0.01980  0.90650  0.81390  Biso   1.000  C
  H28      1.0000 0.02390  0.90080  0.86000  Biso   1.000  H
  C40      1.0000 0.01740  0.98490  0.78240  Biso   1.000  C
  C41      1.0000 0.21790  0.17960  0.20050  Biso   1.000  C
  H29      1.0000 0.27830  0.17330  0.17720  Biso   1.000  H
  C42      1.0000 0.13590  0.14270  0.16900  Biso   1.000  C
  H30      1.0000 0.12970  0.14170  0.12280  Biso   1.000  H
  C43      1.0000 0.06860  0.10960  0.20840  Biso   1.000  C
  C44      1.0000 0.07060  0.11710  0.27680  Biso   1.000  C
  C45      1.0000 0.14840  0.15770  0.30890  Biso   1.000  C
  H31      1.0000 0.14970  0.16250  0.35520  Biso   1.000  H
  C46      1.0000 0.22300  0.19070  0.27110  Biso   1.000  C
  H32      1.0000 0.28570  0.19470  0.29200  Biso   1.000  H
  C47      1.0000 0.98120  0.06370  0.18470  Biso   1.000  C
  H33      1.0000 0.97720  0.05780  0.13610  Biso   1.000  H
  C48      1.0000 0.90190  0.11450  0.21420  Biso   1.000  C
  C49      1.0000 0.82540  0.15500  0.18280  Biso   1.000  C
  H34      1.0000 0.82490  0.15890  0.13650  Biso   1.000  H
  C50      1.0000 0.75390  0.18800  0.21650  Biso   1.000  C
  H35      1.0000 0.69850  0.20210  0.19400  Biso   1.000  H
  C51      1.0000 0.76090  0.20260  0.28990  Biso   1.000  C
  H36      1.0000 0.71930  0.23640  0.31310  Biso   1.000  H
  C52      1.0000 0.83640  0.16040  0.32040  Biso   1.000  C
  H37      1.0000 0.84150  0.15900  0.36670  Biso   1.000  H
  C53      1.0000 0.90210  0.12160  0.28240  Biso   1.000  C
  C54      1.0000 0.99120  0.07590  0.31070  Biso   1.000  C
  H38      1.0000 0.99600  0.08010  0.35940  Biso   1.000  H
  C55      1.0000 0.99450  0.99290  0.28840  Biso   1.000  C
  C56      1.0000 0.99350  0.92220  0.32770  Biso   1.000  C
  H39      1.0000 0.00090  0.92650  0.37370  Biso   1.000  H
  C57      1.0000 0.98160  0.84510  0.29830  Biso   1.000  C
  H40      1.0000 0.98100  0.79780  0.32460  Biso   1.000  H
  C58      1.0000 0.97060  0.83870  0.22950  Biso   1.000  C
  H41      1.0000 0.93110  0.79300  0.21340  Biso   1.000  H
  C59      1.0000 0.97160  0.90940  0.19010  Biso   1.000  C
  H42      1.0000 0.96420  0.90520  0.14410  Biso   1.000  H
  C60      1.0000 0.98350  0.98660  0.21960  Biso   1.000  C
  C61      1.0000 0.74110  0.44470  0.79270  Biso   1.000  C
  H43      1.0000 0.76690  0.49560  0.81220  Biso   1.000  H
  C62      1.0000 0.66760  0.41210  0.82770  Biso   1.000  C
  H44      1.0000 0.66290  0.41680  0.87390  Biso   1.000  H
  C63      1.0000 0.59910  0.37050  0.78840  Biso   1.000  C
  C64      1.0000 0.60290  0.36690  0.72010  Biso   1.000  C
  C65      1.0000 0.68160  0.40460  0.68840  Biso   1.000  C
  H45      1.0000 0.68570  0.40090  0.64220  Biso   1.000  H
  C66      1.0000 0.74550  0.44230  0.71900  Biso   1.000  C
  H46      1.0000 0.79450  0.46800  0.69620  Biso   1.000  H
  C67      1.0000 0.51270  0.33260  0.81890  Biso   1.000  C
  H47      1.0000 0.51170  0.33720  0.86770  Biso   1.000  H
  C68      1.0000 0.42440  0.36640  0.78590  Biso   1.000  C
  C69      1.0000 0.35650  0.40880  0.81720  Biso   1.000  C
  H48      1.0000 0.36040  0.41840  0.86290  Biso   1.000  H
  C70      1.0000 0.27560  0.44010  0.77810  Biso   1.000  C
  H49      1.0000 0.22420  0.46570  0.79820  Biso   1.000  H
  C71      1.0000 0.28030  0.42880  0.70620  Biso   1.000  C
  H50      1.0000 0.23020  0.44720  0.67980  Biso   1.000  H
  C72      1.0000 0.36030  0.39000  0.67440  Biso   1.000  C
  H51      1.0000 0.36300  0.38490  0.62820  Biso   1.000  H
  C73      1.0000 0.43580  0.35950  0.71650  Biso   1.000  C
  C74      1.0000 0.51470  0.31720  0.68740  Biso   1.000  C
  H52      1.0000 0.51430  0.31410  0.63860  Biso   1.000  H
  C75      1.0000 0.52080  0.23670  0.72250  Biso   1.000  C
  C76      1.0000 0.52890  0.16010  0.69430  Biso   1.000  C
  H53      1.0000 0.53540  0.15520  0.64830  Biso   1.000  H
  C77      1.0000 0.52760  0.08680  0.73520  Biso   1.000  C
  H54      1.0000 0.56640  0.04080  0.71920  Biso   1.000  H
  C78      1.0000 0.52030  0.09370  0.80420  Biso   1.000  C
  H55      1.0000 0.52010  0.04640  0.83050  Biso   1.000  H
  C79      1.0000 0.51350  0.16780  0.83240  Biso   1.000  C
  H56      1.0000 0.50570  0.17280  0.87830  Biso   1.000  H
  C80      1.0000 0.51820  0.23710  0.79270  Biso   1.000  C
  C81      1.0000 0.70770  0.43910  0.30500  Biso   1.000  C
  H57      1.0000 0.76760  0.43800  0.32990  Biso   1.000  H
  C82      1.0000 0.72060  0.44570  0.23830  Biso   1.000  C
  H58      1.0000 0.78540  0.44960  0.22130  Biso   1.000  H
  C83      1.0000 0.64630  0.41040  0.19430  Biso   1.000  C
  H59      1.0000 0.64850  0.41450  0.14800  Biso   1.000  H
  C84      1.0000 0.57150  0.37000  0.22800  Biso   1.000  C
  C85      1.0000 0.56940  0.36300  0.29830  Biso   1.000  C
  C86      1.0000 0.63700  0.39770  0.33710  Biso   1.000  C
  H60      1.0000 0.63550  0.39360  0.38340  Biso   1.000  H
  C87      1.0000 0.48790  0.32390  0.19220  Biso   1.000  C
  H61      1.0000 0.49300  0.32770  0.14350  Biso   1.000  H
  C88      1.0000 0.49300  0.23750  0.21500  Biso   1.000  C
  C89      1.0000 0.49680  0.16710  0.17700  Biso   1.000  C
  H62      1.0000 0.50110  0.17190  0.13090  Biso   1.000  H
  C90      1.0000 0.49430  0.08620  0.20650  Biso   1.000  C
  H63      1.0000 0.50020  0.03890  0.18050  Biso   1.000  H
  C91      1.0000 0.48310  0.08080  0.27420  Biso   1.000  C
  H64      1.0000 0.47470  0.02900  0.29330  Biso   1.000  H
  C92      1.0000 0.48360  0.15580  0.31900  Biso   1.000  C
  H65      1.0000 0.48300  0.15150  0.36530  Biso   1.000  H
  C93      1.0000 0.48500  0.22880  0.28790  Biso   1.000  C
  C94      1.0000 0.47440  0.31370  0.32030  Biso   1.000  C
  H66      1.0000 0.46880  0.30980  0.36900  Biso   1.000  H
  C95      1.0000 0.39780  0.35830  0.29110  Biso   1.000  C
  C96      1.0000 0.32530  0.39290  0.32280  Biso   1.000  C
  H67      1.0000 0.32270  0.39150  0.36910  Biso   1.000  H
  C97      1.0000 0.24950  0.43330  0.28450  Biso   1.000  C
  H68      1.0000 0.19550  0.45020  0.30690  Biso   1.000  H
  C98      1.0000 0.25470  0.44700  0.21750  Biso   1.000  C
  H69      1.0000 0.21050  0.47880  0.19440  Biso   1.000  H
  C99      1.0000 0.33340  0.40880  0.18570  Biso   1.000  C
  H70      1.0000 0.33660  0.41290  0.13940  Biso   1.000  H
  C100     1.0000 0.40310  0.36740  0.21670  Biso   1.000  C
  C101     1.0000 0.78210  0.67960  0.79950  Biso   1.000  C
  H71      1.0000 0.72170  0.67330  0.82280  Biso   1.000  H
  C102     1.0000 0.86410  0.64270  0.83100  Biso   1.000  C
  H72      1.0000 0.87030  0.64170  0.87720  Biso   1.000  H
  C103     1.0000 0.93140  0.60960  0.79160  Biso   1.000  C
  C104     1.0000 0.92940  0.61710  0.72320  Biso   1.000  C
  C105     1.0000 0.85160  0.65770  0.69110  Biso   1.000  C
  H73      1.0000 0.85030  0.66250  0.64480  Biso   1.000  H
  C106     1.0000 0.77700  0.69070  0.72890  Biso   1.000  C
  H74      1.0000 0.71430  0.69470  0.70800  Biso   1.000  H
  C107     1.0000 0.01880  0.56370  0.81530  Biso   1.000  C
  H75      1.0000 0.02280  0.55780  0.86390  Biso   1.000  H
  C108     1.0000 0.09810  0.61450  0.78580  Biso   1.000  C
  C109     1.0000 0.17460  0.65500  0.81720  Biso   1.000  C
  H76      1.0000 0.17510  0.65890  0.86350  Biso   1.000  H
  C110     1.0000 0.24610  0.68800  0.78350  Biso   1.000  C
  H77      1.0000 0.30150  0.70210  0.80600  Biso   1.000  H
  C111     1.0000 0.23910  0.70260  0.71010  Biso   1.000  C
  H78      1.0000 0.28070  0.73640  0.68690  Biso   1.000  H
  C112     1.0000 0.16360  0.66040  0.67960  Biso   1.000  C
  H79      1.0000 0.15850  0.65900  0.63330  Biso   1.000  H
  C113     1.0000 0.09790  0.62160  0.71760  Biso   1.000  C
  C114     1.0000 0.00880  0.57590  0.68930  Biso   1.000  C
  H80      1.0000 0.00400  0.58010  0.64060  Biso   1.000  H
  C115     1.0000 0.00550  0.49290  0.71160  Biso   1.000  C
  C116     1.0000 0.00650  0.42220  0.67230  Biso   1.000  C
  H81      1.0000 0.99910  0.42650  0.62630  Biso   1.000  H
  C117     1.0000 0.01840  0.34510  0.70170  Biso   1.000  C
  H82      1.0000 0.01900  0.29780  0.67540  Biso   1.000  H
  C118     1.0000 0.02940  0.33870  0.77050  Biso   1.000  C
  H83      1.0000 0.06890  0.29300  0.78660  Biso   1.000  H
  C119     1.0000 0.02840  0.40940  0.80990  Biso   1.000  C
  H84      1.0000 0.03580  0.40520  0.85590  Biso   1.000  H
  C120     1.0000 0.01650  0.48660  0.78040  Biso   1.000  C
  C121     1.0000 0.25890  0.94470  0.20730  Biso   1.000  C
  H85      1.0000 0.23310  0.99560  0.18780  Biso   1.000  H
  C122     1.0000 0.33240  0.91210  0.17230  Biso   1.000  C
  H86      1.0000 0.33710  0.91680  0.12610  Biso   1.000  H
  C123     1.0000 0.40090  0.87050  0.21160  Biso   1.000  C
  C124     1.0000 0.39710  0.86690  0.27990  Biso   1.000  C
  C125     1.0000 0.31840  0.90460  0.31160  Biso   1.000  C
  H87      1.0000 0.31430  0.90090  0.35780  Biso   1.000  H
  C126     1.0000 0.25450  0.94230  0.28100  Biso   1.000  C
  H88      1.0000 0.20550  0.96800  0.30380  Biso   1.000  H
  C127     1.0000 0.48730  0.83260  0.18110  Biso   1.000  C
  H89      1.0000 0.48830  0.83720  0.13230  Biso   1.000  H
  C128     1.0000 0.57560  0.86640  0.21410  Biso   1.000  C
  C129     1.0000 0.64350  0.90880  0.18280  Biso   1.000  C
  H90      1.0000 0.63960  0.91840  0.13710  Biso   1.000  H
  C130     1.0000 0.72440  0.94010  0.22190  Biso   1.000  C
  H91      1.0000 0.77580  0.96570  0.20180  Biso   1.000  H
  C131     1.0000 0.71970  0.92880  0.29380  Biso   1.000  C
  H92      1.0000 0.76980  0.94720  0.32020  Biso   1.000  H
  C132     1.0000 0.63970  0.89000  0.32560  Biso   1.000  C
  H93      1.0000 0.63700  0.88490  0.37180  Biso   1.000  H
  C133     1.0000 0.56420  0.85950  0.28350  Biso   1.000  C
  C134     1.0000 0.48530  0.81720  0.31260  Biso   1.000  C
  H94      1.0000 0.48570  0.81410  0.36140  Biso   1.000  H
  C135     1.0000 0.47920  0.73670  0.27750  Biso   1.000  C
  C136     1.0000 0.47110  0.66010  0.30570  Biso   1.000  C
  H95      1.0000 0.46460  0.65520  0.35170  Biso   1.000  H
  C137     1.0000 0.47240  0.58680  0.26480  Biso   1.000  C
  H96      1.0000 0.43360  0.54080  0.28080  Biso   1.000  H
  C138     1.0000 0.47970  0.59370  0.19580  Biso   1.000  C
  H97      1.0000 0.47990  0.54640  0.16950  Biso   1.000  H
  C139     1.0000 0.48650  0.66780  0.16760  Biso   1.000  C
  H98      1.0000 0.49430  0.67280  0.12170  Biso   1.000  H
  C140     1.0000 0.48180  0.73710  0.20730  Biso   1.000  C
  C141     1.0000 0.29230  0.93910  0.69500  Biso   1.000  C
  H99      1.0000 0.23240  0.93800  0.67010  Biso   1.000  H
  C142     1.0000 0.27940  0.94570  0.76170  Biso   1.000  C
  H100     1.0000 0.21460  0.94960  0.77870  Biso   1.000  H
  C143     1.0000 0.35370  0.91040  0.80570  Biso   1.000  C
  H101     1.0000 0.35150  0.91450  0.85200  Biso   1.000  H
  C144     1.0000 0.42850  0.87000  0.77200  Biso   1.000  C
  C145     1.0000 0.43060  0.86300  0.70170  Biso   1.000  C
  C146     1.0000 0.36300  0.89770  0.66290  Biso   1.000  C
  H102     1.0000 0.36450  0.89360  0.61660  Biso   1.000  H
  C147     1.0000 0.51210  0.82390  0.80780  Biso   1.000  C
  H103     1.0000 0.50700  0.82770  0.85650  Biso   1.000  H
  C148     1.0000 0.50700  0.73750  0.78500  Biso   1.000  C
  C149     1.0000 0.50320  0.66710  0.82300  Biso   1.000  C
  H104     1.0000 0.49890  0.67190  0.86910  Biso   1.000  H
  C150     1.0000 0.50570  0.58620  0.79350  Biso   1.000  C
  H105     1.0000 0.49980  0.53890  0.81950  Biso   1.000  H
  C151     1.0000 0.51690  0.58080  0.72580  Biso   1.000  C
  H106     1.0000 0.52530  0.52900  0.70670  Biso   1.000  H
  C152     1.0000 0.51640  0.65580  0.68100  Biso   1.000  C
  H107     1.0000 0.51700  0.65150  0.63470  Biso   1.000  H
  C153     1.0000 0.51500  0.72880  0.71210  Biso   1.000  C
  C154     1.0000 0.52560  0.81370  0.67970  Biso   1.000  C
  H108     1.0000 0.53120  0.80980  0.63100  Biso   1.000  H
  C155     1.0000 0.60220  0.85830  0.70890  Biso   1.000  C
  C156     1.0000 0.67470  0.89290  0.67720  Biso   1.000  C
  H109     1.0000 0.67730  0.89150  0.63090  Biso   1.000  H
  C157     1.0000 0.75050  0.93330  0.71550  Biso   1.000  C
  H110     1.0000 0.80450  0.95020  0.69310  Biso   1.000  H
  C158     1.0000 0.74530  0.94700  0.78250  Biso   1.000  C
  H111     1.0000 0.78950  0.97880  0.80560  Biso   1.000  H
  C159     1.0000 0.66660  0.90880  0.81430  Biso   1.000  C
  H112     1.0000 0.66340  0.91290  0.86060  Biso   1.000  H
  C160     1.0000 0.59690  0.86740  0.78330  Biso   1.000  C
