data_image0
_cell_length_a       9.572
_cell_length_b       14.718
_cell_length_c       19.571
_cell_angle_alpha    73.658
_cell_angle_beta     77.093
_cell_angle_gamma    80.26

_symmetry_space_group_name_H-M    "P 1"
_symmetry_int_tables_number       1

loop_
  _symmetry_equiv_pos_as_xyz
  'x, y, z'

loop_
  _atom_site_label
  _atom_site_occupancy
  _atom_site_fract_x
  _atom_site_fract_y
  _atom_site_fract_z
  _atom_site_thermal_displace_type
  _atom_site_B_iso_or_equiv
  _atom_site_type_symbol
  Zn1      1.0000 0.72721  0.12622  0.45317  Biso   1.000  Zn
  Zn2      1.0000 0.73997  0.88428  0.04875  Biso   1.000  Zn
  O1       1.0000 0.55700  0.82700  0.19437  Biso   1.000  O
  O2       1.0000 0.54580  0.84570  0.08072  Biso   1.000  O
  O3       1.0000 0.92860  0.15730  0.42250  Biso   1.000  O
  O4       1.0000 0.91260  0.17040  0.30953  Biso   1.000  O
  O5       1.0000 0.88560  0.80860  0.10006  Biso   1.000  O
  O6       1.0000 0.05360  0.88660  0.01749  Biso   1.000  O
  O7       1.0000 0.60100  0.17310  0.38072  Biso   1.000  O
  O8       1.0000 0.43330  0.11830  0.47328  Biso   1.000  O
  N1       1.0000 0.75040  0.91310  0.93927  Biso   1.000  N
  N2       1.0000 0.72130  0.07270  0.56402  Biso   1.000  N
  N3       1.0000 0.08200  0.67480  0.32450  Biso   1.000  N
  H1       1.0000 0.99330  0.66450  0.33200  Biso   1.000  H
  N4       1.0000 0.35800  0.32440  0.16540  Biso   1.000  N
  H2       1.0000 0.30550  0.32860  0.13400  Biso   1.000  H
  C1       1.0000 0.10940  0.80580  0.13290  Biso   1.000  C
  C2       1.0000 0.25260  0.82840  0.11510  Biso   1.000  C
  H3       1.0000 0.28970  0.86040  0.06790  Biso   1.000  H
  C3       1.0000 0.33760  0.80350  0.16700  Biso   1.000  C
  C4       1.0000 0.28380  0.75290  0.23810  Biso   1.000  C
  H4       1.0000 0.34130  0.73620  0.27330  Biso   1.000  H
  C5       1.0000 0.14250  0.72810  0.25530  Biso   1.000  C
  C6       1.0000 0.05650  0.75540  0.20210  Biso   1.000  C
  H5       1.0000 0.96270  0.73930  0.21370  Biso   1.000  H
  C7       1.0000 0.15810  0.63750  0.38190  Biso   1.000  C
  H6       1.0000 0.17230  0.68850  0.40120  Biso   1.000  H
  H7       1.0000 0.25200  0.60660  0.36470  Biso   1.000  H
  C8       1.0000 0.07020  0.56470  0.44160  Biso   1.000  C
  C9       1.0000 0.96390  0.59810  0.49470  Biso   1.000  C
  C10      1.0000 0.10170  0.46690  0.44570  Biso   1.000  C
  C11      1.0000 0.54910  0.40250  0.00760  Biso   1.000  C
  C12      1.0000 0.43390  0.53290  0.06100  Biso   1.000  C
  C13      1.0000 0.48730  0.43780  0.06880  Biso   1.000  C
  C14      1.0000 0.48430  0.36950  0.14430  Biso   1.000  C
  H8       1.0000 0.56800  0.32200  0.14350  Biso   1.000  H
  H9       1.0000 0.48770  0.40460  0.17890  Biso   1.000  H
  C15      1.0000 0.31620  0.27220  0.23770  Biso   1.000  C
  C16      1.0000 0.41260  0.24200  0.28530  Biso   1.000  C
  H10      1.0000 0.50820  0.25470  0.26970  Biso   1.000  H
  C17      1.0000 0.36470  0.19240  0.35710  Biso   1.000  C
  C18      1.0000 0.22400  0.17320  0.38040  Biso   1.000  C
  H11      1.0000 0.19180  0.14280  0.42860  Biso   1.000  H
  C19      1.0000 0.12950  0.19950  0.33130  Biso   1.000  C
  C20      1.0000 0.17610  0.24870  0.26060  Biso   1.000  C
  H12      1.0000 0.11290  0.26610  0.22800  Biso   1.000  H
  C21      1.0000 0.84650  0.06400  0.58720  Biso   1.000  C
  H13      1.0000 0.92950  0.07910  0.55320  Biso   1.000  H
  C22      1.0000 0.85570  0.03360  0.65980  Biso   1.000  C
  H14      1.0000 0.94380  0.02860  0.67400  Biso   1.000  H
  C23      1.0000 0.73300  0.01050  0.71150  Biso   1.000  C
  C24      1.0000 0.60560  0.01920  0.68700  Biso   1.000  C
  H15      1.0000 0.52070  0.00470  0.71970  Biso   1.000  H
  C25      1.0000 0.60560  0.04900  0.61530  Biso   1.000  C
  H16      1.0000 0.51850  0.05350  0.60030  Biso   1.000  H
  C26      1.0000 0.74280  0.97360  0.79120  Biso   1.000  C
  C27      1.0000 0.86850  0.96090  0.81550  Biso   1.000  C
  H17      1.0000 0.95410  0.97250  0.78250  Biso   1.000  H
  C28      1.0000 0.87020  0.93020  0.89010  Biso   1.000  C
  H18      1.0000 0.95760  0.92160  0.90560  Biso   1.000  H
  C29      1.0000 0.62760  0.92390  0.91550  Biso   1.000  C
  H19      1.0000 0.54340  0.91050  0.94910  Biso   1.000  H
  C30      1.0000 0.61990  0.95390  0.84360  Biso   1.000  C
  H20      1.0000 0.53120  0.96110  0.82950  Biso   1.000  H
  C31      1.0000 0.01230  0.83590  0.07860  Biso   1.000  C
  C32      1.0000 0.49040  0.82630  0.14780  Biso   1.000  C
  C33      1.0000 0.47140  0.15830  0.40870  Biso   1.000  C
  C34      1.0000 0.97830  0.17520  0.35570  Biso   1.000  C
  C35      1.0000 0.21090  0.43250  0.38610  Biso   1.000  C
  H21      1.0000 0.29990  0.40710  0.40290  Biso   1.000  H
  H22      1.0000 0.22770  0.48500  0.34420  Biso   1.000  H
  H23      1.0000 0.17400  0.38380  0.37360  Biso   1.000  H
  C36      1.0000 0.92160  0.70360  0.48570  Biso   1.000  C
  H24      1.0000 0.81830  0.71660  0.49420  Biso   1.000  H
  H25      1.0000 0.96050  0.73730  0.43730  Biso   1.000  H
  H26      1.0000 0.95900  0.72420  0.51980  Biso   1.000  H
  C37      1.0000 0.36330  0.57090  0.12670  Biso   1.000  C
  H27      1.0000 0.43270  0.59920  0.14030  Biso   1.000  H
  H28      1.0000 0.32890  0.51940  0.16620  Biso   1.000  H
  H29      1.0000 0.28380  0.61790  0.11500  Biso   1.000  H
  C38      1.0000 0.59670  0.29650  0.01520  Biso   1.000  C
  H30      1.0000 0.55720  0.27530  0.98220  Biso   1.000  H
  H31      1.0000 0.56270  0.26170  0.06400  Biso   1.000  H
  H32      1.0000 0.70010  0.28590  0.00430  Biso   1.000  H
  Zn3      1.0000 0.27279  0.87378  0.54683  Biso   1.000  Zn
  Zn4      1.0000 0.26003  0.11572  0.95125  Biso   1.000  Zn
  O9       1.0000 0.44300  0.17300  0.80563  Biso   1.000  O
  O10      1.0000 0.45420  0.15430  0.91928  Biso   1.000  O
  O11      1.0000 0.07140  0.84270  0.57750  Biso   1.000  O
  O12      1.0000 0.08740  0.82960  0.69047  Biso   1.000  O
  O13      1.0000 0.11440  0.19140  0.89994  Biso   1.000  O
  O14      1.0000 0.94640  0.11340  0.98251  Biso   1.000  O
  O15      1.0000 0.39900  0.82690  0.61928  Biso   1.000  O
  O16      1.0000 0.56670  0.88170  0.52672  Biso   1.000  O
  N5       1.0000 0.24960  0.08690  0.06073  Biso   1.000  N
  N6       1.0000 0.27870  0.92730  0.43598  Biso   1.000  N
  N7       1.0000 0.91800  0.32520  0.67550  Biso   1.000  N
  H33      1.0000 0.00670  0.33550  0.66800  Biso   1.000  H
  N8       1.0000 0.64200  0.67560  0.83460  Biso   1.000  N
  H34      1.0000 0.69450  0.67140  0.86600  Biso   1.000  H
  C39      1.0000 0.89060  0.19420  0.86710  Biso   1.000  C
  C40      1.0000 0.74740  0.17160  0.88490  Biso   1.000  C
  H35      1.0000 0.71030  0.13960  0.93210  Biso   1.000  H
  C41      1.0000 0.66240  0.19650  0.83300  Biso   1.000  C
  C42      1.0000 0.71620  0.24710  0.76190  Biso   1.000  C
  H36      1.0000 0.65870  0.26380  0.72670  Biso   1.000  H
  C43      1.0000 0.85750  0.27190  0.74470  Biso   1.000  C
  C44      1.0000 0.94350  0.24460  0.79790  Biso   1.000  C
  H37      1.0000 0.03730  0.26070  0.78630  Biso   1.000  H
  C45      1.0000 0.84190  0.36250  0.61810  Biso   1.000  C
  H38      1.0000 0.82770  0.31150  0.59880  Biso   1.000  H
  H39      1.0000 0.74800  0.39340  0.63530  Biso   1.000  H
  C46      1.0000 0.92980  0.43530  0.55840  Biso   1.000  C
  C47      1.0000 0.03610  0.40190  0.50530  Biso   1.000  C
  C48      1.0000 0.89830  0.53310  0.55430  Biso   1.000  C
  C49      1.0000 0.45090  0.59750  0.99240  Biso   1.000  C
  C50      1.0000 0.56610  0.46710  0.93900  Biso   1.000  C
  C51      1.0000 0.51270  0.56220  0.93120  Biso   1.000  C
  C52      1.0000 0.51570  0.63050  0.85570  Biso   1.000  C
  H40      1.0000 0.43200  0.67800  0.85650  Biso   1.000  H
  H41      1.0000 0.51230  0.59540  0.82110  Biso   1.000  H
  C53      1.0000 0.68380  0.72780  0.76230  Biso   1.000  C
  C54      1.0000 0.58740  0.75800  0.71470  Biso   1.000  C
  H42      1.0000 0.49180  0.74530  0.73030  Biso   1.000  H
  C55      1.0000 0.63530  0.80760  0.64290  Biso   1.000  C
  C56      1.0000 0.77600  0.82680  0.61960  Biso   1.000  C
  H43      1.0000 0.80820  0.85720  0.57140  Biso   1.000  H
  C57      1.0000 0.87050  0.80050  0.66870  Biso   1.000  C
  C58      1.0000 0.82390  0.75130  0.73940  Biso   1.000  C
  H44      1.0000 0.88710  0.73390  0.77200  Biso   1.000  H
  C59      1.0000 0.15350  0.93600  0.41280  Biso   1.000  C
  H45      1.0000 0.07050  0.92090  0.44680  Biso   1.000  H
  C60      1.0000 0.14430  0.96640  0.34020  Biso   1.000  C
  H46      1.0000 0.05620  0.97140  0.32600  Biso   1.000  H
  C61      1.0000 0.26700  0.98950  0.28850  Biso   1.000  C
  C62      1.0000 0.39440  0.98080  0.31300  Biso   1.000  C
  H47      1.0000 0.47930  0.99530  0.28030  Biso   1.000  H
  C63      1.0000 0.39440  0.95100  0.38470  Biso   1.000  C
  H48      1.0000 0.48150  0.94650  0.39970  Biso   1.000  H
  C64      1.0000 0.25720  0.02640  0.20880  Biso   1.000  C
  C65      1.0000 0.13150  0.03910  0.18450  Biso   1.000  C
  H49      1.0000 0.04590  0.02750  0.21750  Biso   1.000  H
  C66      1.0000 0.12980  0.06980  0.10990  Biso   1.000  C
  H50      1.0000 0.04240  0.07840  0.09440  Biso   1.000  H
  C67      1.0000 0.37240  0.07610  0.08450  Biso   1.000  C
  H51      1.0000 0.45660  0.08950  0.05090  Biso   1.000  H
  C68      1.0000 0.38010  0.04610  0.15640  Biso   1.000  C
  H52      1.0000 0.46880  0.03890  0.17050  Biso   1.000  H
  C69      1.0000 0.98770  0.16410  0.92140  Biso   1.000  C
  C70      1.0000 0.50960  0.17370  0.85220  Biso   1.000  C
  C71      1.0000 0.52860  0.84170  0.59130  Biso   1.000  C
  C72      1.0000 0.02170  0.82480  0.64430  Biso   1.000  C
  C73      1.0000 0.78910  0.56750  0.61390  Biso   1.000  C
  H53      1.0000 0.70010  0.59290  0.59710  Biso   1.000  H
  H54      1.0000 0.77230  0.51500  0.65580  Biso   1.000  H
  H55      1.0000 0.82600  0.61620  0.62640  Biso   1.000  H
  C74      1.0000 0.07840  0.29640  0.51430  Biso   1.000  C
  H56      1.0000 0.18170  0.28340  0.50580  Biso   1.000  H
  H57      1.0000 0.03950  0.26270  0.56270  Biso   1.000  H
  H58      1.0000 0.04100  0.27580  0.48020  Biso   1.000  H
  C75      1.0000 0.63670  0.42910  0.87330  Biso   1.000  C
  H59      1.0000 0.56730  0.40080  0.85970  Biso   1.000  H
  H60      1.0000 0.67110  0.48060  0.83380  Biso   1.000  H
  H61      1.0000 0.71620  0.38210  0.88500  Biso   1.000  H
  C76      1.0000 0.40330  0.70350  0.98480  Biso   1.000  C
  H62      1.0000 0.44280  0.72470  0.01780  Biso   1.000  H
  H63      1.0000 0.43730  0.73830  0.93600  Biso   1.000  H
  H64      1.0000 0.29990  0.71410  0.99570  Biso   1.000  H
