data_image0
_cell_length_a       32.358
_cell_length_b       11.923
_cell_length_c       23.469
_cell_angle_alpha    90
_cell_angle_beta     130.884
_cell_angle_gamma    90

_symmetry_space_group_name_H-M    "P 1"
_symmetry_int_tables_number       1

loop_
  _symmetry_equiv_pos_as_xyz
  'x, y, z'

loop_
  _atom_site_label
  _atom_site_occupancy
  _atom_site_fract_x
  _atom_site_fract_y
  _atom_site_fract_z
  _atom_site_thermal_displace_type
  _atom_site_B_iso_or_equiv
  _atom_site_type_symbol
  C1       1.0000 0.14470  0.28420  0.13070  Biso   1.000  C
  H1       1.0000 0.15770  0.28560  0.17970  Biso   1.000  H
  C2       1.0000 0.13590  0.24130  0.03520  Biso   1.000  C
  H2       1.0000 0.14080  0.20810  0.00420  Biso   1.000  H
  C3       1.0000 0.05400  0.36060  0.93810  Biso   1.000  C
  H3       1.0000 0.05370  0.32250  0.90140  Biso   1.000  H
  H4       1.0000 0.06300  0.43870  0.93950  Biso   1.000  H
  C4       1.0000 0.99610  0.35380  0.91240  Biso   1.000  C
  C5       1.0000 0.97940  0.23450  0.91510  Biso   1.000  C
  C6       1.0000 0.99080  0.13790  0.89620  Biso   1.000  C
  C7       1.0000 0.97240  0.03250  0.89480  Biso   1.000  C
  H5       1.0000 0.98150  0.96960  0.88160  Biso   1.000  H
  C8       1.0000 0.94110  0.02410  0.91280  Biso   1.000  C
  C9       1.0000 0.92620  0.11860  0.92950  Biso   1.000  C
  H6       1.0000 0.90210  0.11270  0.93820  Biso   1.000  H
  C10      1.0000 0.94640  0.21900  0.93310  Biso   1.000  C
  C11      1.0000 0.85780  0.34440  0.75150  Biso   1.000  C
  H7       1.0000 0.85730  0.28910  0.72310  Biso   1.000  H
  C12      1.0000 0.83680  0.45490  0.79780  Biso   1.000  C
  H8       1.0000 0.81660  0.49260  0.80720  Biso   1.000  H
  C13      1.0000 0.95780  0.39640  0.83250  Biso   1.000  C
  H9       1.0000 0.95890  0.34640  0.80090  Biso   1.000  H
  H10      1.0000 0.96980  0.47000  0.83070  Biso   1.000  H
  N1       1.0000 0.16810  0.22470  0.10870  Biso   1.000  N
  N2       1.0000 0.09570  0.31120  0.01150  Biso   1.000  N
  N3       1.0000 0.10030  0.34060  0.07270  Biso   1.000  N
  N4       1.0000 0.81510  0.37120  0.74460  Biso   1.000  N
  N5       1.0000 0.88810  0.47630  0.83360  Biso   1.000  N
  N6       1.0000 0.90020  0.40400  0.80220  Biso   1.000  N
  O1       1.0000 0.99580  0.42560  0.95990  Biso   1.000  O
  Cu1      1.0000 0.24120  0.17354  0.17386  Biso   1.000  Cu
  Cu2      1.0000 0.05406  0.45322  0.06657  Biso   1.000  Cu
  F1       1.0000 0.02350  0.14330  0.87780  Biso   1.000  F
  F2       1.0000 0.92470  0.92060  0.91450  Biso   1.000  F
  C14      1.0000 0.35530  0.78420  0.36930  Biso   1.000  C
  H11      1.0000 0.34230  0.78560  0.32030  Biso   1.000  H
  C15      1.0000 0.36410  0.74130  0.46480  Biso   1.000  C
  H12      1.0000 0.35920  0.70810  0.49580  Biso   1.000  H
  C16      1.0000 0.44600  0.86060  0.56190  Biso   1.000  C
  H13      1.0000 0.44630  0.82250  0.59860  Biso   1.000  H
  H14      1.0000 0.43700  0.93870  0.56050  Biso   1.000  H
  C17      1.0000 0.50390  0.85380  0.58760  Biso   1.000  C
  C18      1.0000 0.52060  0.73450  0.58490  Biso   1.000  C
  C19      1.0000 0.50920  0.63790  0.60380  Biso   1.000  C
  C20      1.0000 0.52760  0.53250  0.60520  Biso   1.000  C
  H15      1.0000 0.51850  0.46960  0.61840  Biso   1.000  H
  C21      1.0000 0.55890  0.52410  0.58720  Biso   1.000  C
  C22      1.0000 0.57380  0.61860  0.57050  Biso   1.000  C
  H16      1.0000 0.59790  0.61270  0.56180  Biso   1.000  H
  C23      1.0000 0.55360  0.71900  0.56690  Biso   1.000  C
  C24      1.0000 0.64220  0.84440  0.74850  Biso   1.000  C
  H17      1.0000 0.64270  0.78910  0.77690  Biso   1.000  H
  C25      1.0000 0.66320  0.95490  0.70220  Biso   1.000  C
  H18      1.0000 0.68340  0.99260  0.69280  Biso   1.000  H
  C26      1.0000 0.54220  0.89640  0.66750  Biso   1.000  C
  H19      1.0000 0.54110  0.84640  0.69910  Biso   1.000  H
  H20      1.0000 0.53020  0.97000  0.66930  Biso   1.000  H
  N7       1.0000 0.33190  0.72470  0.39130  Biso   1.000  N
  N8       1.0000 0.40430  0.81120  0.48850  Biso   1.000  N
  N9       1.0000 0.39970  0.84060  0.42730  Biso   1.000  N
  N10      1.0000 0.68490  0.87120  0.75540  Biso   1.000  N
  N11      1.0000 0.61190  0.97630  0.66640  Biso   1.000  N
  N12      1.0000 0.59980  0.90400  0.69780  Biso   1.000  N
  O2       1.0000 0.50420  0.92560  0.54010  Biso   1.000  O
  Cu3      1.0000 0.25880  0.67354  0.32614  Biso   1.000  Cu
  Cu4      1.0000 0.44594  0.95322  0.43343  Biso   1.000  Cu
  F3       1.0000 0.47650  0.64330  0.62220  Biso   1.000  F
  F4       1.0000 0.57530  0.42060  0.58550  Biso   1.000  F
  C27      1.0000 0.85530  0.71580  0.86930  Biso   1.000  C
  H21      1.0000 0.84230  0.71440  0.82030  Biso   1.000  H
  C28      1.0000 0.86410  0.75870  0.96480  Biso   1.000  C
  H22      1.0000 0.85920  0.79190  0.99580  Biso   1.000  H
  C29      1.0000 0.94600  0.63940  0.06190  Biso   1.000  C
  H23      1.0000 0.94630  0.67750  0.09860  Biso   1.000  H
  H24      1.0000 0.93700  0.56130  0.06050  Biso   1.000  H
  C30      1.0000 0.00390  0.64620  0.08760  Biso   1.000  C
  C31      1.0000 0.02060  0.76550  0.08490  Biso   1.000  C
  C32      1.0000 0.00920  0.86210  0.10380  Biso   1.000  C
  C33      1.0000 0.02760  0.96750  0.10520  Biso   1.000  C
  H25      1.0000 0.01850  0.03040  0.11840  Biso   1.000  H
  C34      1.0000 0.05890  0.97590  0.08720  Biso   1.000  C
  C35      1.0000 0.07380  0.88140  0.07050  Biso   1.000  C
  H26      1.0000 0.09790  0.88730  0.06180  Biso   1.000  H
  C36      1.0000 0.05360  0.78100  0.06690  Biso   1.000  C
  C37      1.0000 0.14220  0.65560  0.24850  Biso   1.000  C
  H27      1.0000 0.14270  0.71090  0.27690  Biso   1.000  H
  C38      1.0000 0.16320  0.54510  0.20220  Biso   1.000  C
  H28      1.0000 0.18340  0.50740  0.19280  Biso   1.000  H
  C39      1.0000 0.04220  0.60360  0.16750  Biso   1.000  C
  H29      1.0000 0.04110  0.65360  0.19910  Biso   1.000  H
  H30      1.0000 0.03020  0.53000  0.16930  Biso   1.000  H
  N13      1.0000 0.83190  0.77530  0.89130  Biso   1.000  N
  N14      1.0000 0.90430  0.68880  0.98850  Biso   1.000  N
  N15      1.0000 0.89970  0.65940  0.92730  Biso   1.000  N
  N16      1.0000 0.18490  0.62880  0.25540  Biso   1.000  N
  N17      1.0000 0.11190  0.52370  0.16640  Biso   1.000  N
  N18      1.0000 0.09980  0.59600  0.19780  Biso   1.000  N
  O3       1.0000 0.00420  0.57440  0.04010  Biso   1.000  O
  Cu5      1.0000 0.75880  0.82646  0.82614  Biso   1.000  Cu
  Cu6      1.0000 0.94594  0.54678  0.93343  Biso   1.000  Cu
  F5       1.0000 0.97650  0.85670  0.12220  Biso   1.000  F
  F6       1.0000 0.07530  0.07940  0.08550  Biso   1.000  F
  C40      1.0000 0.64470  0.21580  0.63070  Biso   1.000  C
  H31      1.0000 0.65770  0.21440  0.67970  Biso   1.000  H
  C41      1.0000 0.63590  0.25870  0.53520  Biso   1.000  C
  H32      1.0000 0.64080  0.29190  0.50420  Biso   1.000  H
  C42      1.0000 0.55400  0.13940  0.43810  Biso   1.000  C
  H33      1.0000 0.55370  0.17750  0.40140  Biso   1.000  H
  H34      1.0000 0.56300  0.06130  0.43950  Biso   1.000  H
  C43      1.0000 0.49610  0.14620  0.41240  Biso   1.000  C
  C44      1.0000 0.47940  0.26550  0.41510  Biso   1.000  C
  C45      1.0000 0.49080  0.36210  0.39620  Biso   1.000  C
  C46      1.0000 0.47240  0.46750  0.39480  Biso   1.000  C
  H35      1.0000 0.48150  0.53040  0.38160  Biso   1.000  H
  C47      1.0000 0.44110  0.47590  0.41280  Biso   1.000  C
  C48      1.0000 0.42620  0.38140  0.42950  Biso   1.000  C
  H36      1.0000 0.40210  0.38730  0.43820  Biso   1.000  H
  C49      1.0000 0.44640  0.28100  0.43310  Biso   1.000  C
  C50      1.0000 0.35780  0.15560  0.25150  Biso   1.000  C
  H37      1.0000 0.35730  0.21090  0.22310  Biso   1.000  H
  C51      1.0000 0.33680  0.04510  0.29780  Biso   1.000  C
  H38      1.0000 0.31660  0.00740  0.30720  Biso   1.000  H
  C52      1.0000 0.45780  0.10360  0.33250  Biso   1.000  C
  H39      1.0000 0.45890  0.15360  0.30090  Biso   1.000  H
  H40      1.0000 0.46980  0.03000  0.33070  Biso   1.000  H
  N19      1.0000 0.66810  0.27530  0.60870  Biso   1.000  N
  N20      1.0000 0.59570  0.18880  0.51150  Biso   1.000  N
  N21      1.0000 0.60030  0.15940  0.57270  Biso   1.000  N
  N22      1.0000 0.31510  0.12880  0.24460  Biso   1.000  N
  N23      1.0000 0.38810  0.02370  0.33360  Biso   1.000  N
  N24      1.0000 0.40020  0.09600  0.30220  Biso   1.000  N
  O4       1.0000 0.49580  0.07440  0.45990  Biso   1.000  O
  Cu7      1.0000 0.74120  0.32646  0.67386  Biso   1.000  Cu
  Cu8      1.0000 0.55406  0.04678  0.56657  Biso   1.000  Cu
  F7       1.0000 0.52350  0.35670  0.37780  Biso   1.000  F
  F8       1.0000 0.42470  0.57940  0.41450  Biso   1.000  F
  C53      1.0000 0.64470  0.78420  0.13070  Biso   1.000  C
  H41      1.0000 0.65770  0.78560  0.17970  Biso   1.000  H
  C54      1.0000 0.63590  0.74130  0.03520  Biso   1.000  C
  H42      1.0000 0.64080  0.70810  0.00420  Biso   1.000  H
  C55      1.0000 0.55400  0.86060  0.93810  Biso   1.000  C
  H43      1.0000 0.55370  0.82250  0.90140  Biso   1.000  H
  H44      1.0000 0.56300  0.93870  0.93950  Biso   1.000  H
  C56      1.0000 0.49610  0.85380  0.91240  Biso   1.000  C
  C57      1.0000 0.47940  0.73450  0.91510  Biso   1.000  C
  C58      1.0000 0.49080  0.63790  0.89620  Biso   1.000  C
  C59      1.0000 0.47240  0.53250  0.89480  Biso   1.000  C
  H45      1.0000 0.48150  0.46960  0.88160  Biso   1.000  H
  C60      1.0000 0.44110  0.52410  0.91280  Biso   1.000  C
  C61      1.0000 0.42620  0.61860  0.92950  Biso   1.000  C
  H46      1.0000 0.40210  0.61270  0.93820  Biso   1.000  H
  C62      1.0000 0.44640  0.71900  0.93310  Biso   1.000  C
  C63      1.0000 0.35780  0.84440  0.75150  Biso   1.000  C
  H47      1.0000 0.35730  0.78910  0.72310  Biso   1.000  H
  C64      1.0000 0.33680  0.95490  0.79780  Biso   1.000  C
  H48      1.0000 0.31660  0.99260  0.80720  Biso   1.000  H
  C65      1.0000 0.45780  0.89640  0.83250  Biso   1.000  C
  H49      1.0000 0.45890  0.84640  0.80090  Biso   1.000  H
  H50      1.0000 0.46980  0.97000  0.83070  Biso   1.000  H
  N25      1.0000 0.66810  0.72470  0.10870  Biso   1.000  N
  N26      1.0000 0.59570  0.81120  0.01150  Biso   1.000  N
  N27      1.0000 0.60030  0.84060  0.07270  Biso   1.000  N
  N28      1.0000 0.31510  0.87120  0.74460  Biso   1.000  N
  N29      1.0000 0.38810  0.97630  0.83360  Biso   1.000  N
  N30      1.0000 0.40020  0.90400  0.80220  Biso   1.000  N
  O5       1.0000 0.49580  0.92560  0.95990  Biso   1.000  O
  Cu9      1.0000 0.74120  0.67354  0.17386  Biso   1.000  Cu
  Cu10     1.0000 0.55406  0.95322  0.06657  Biso   1.000  Cu
  F9       1.0000 0.52350  0.64330  0.87780  Biso   1.000  F
  F10      1.0000 0.42470  0.42060  0.91450  Biso   1.000  F
  C66      1.0000 0.85530  0.28420  0.36930  Biso   1.000  C
  H51      1.0000 0.84230  0.28560  0.32030  Biso   1.000  H
  C67      1.0000 0.86410  0.24130  0.46480  Biso   1.000  C
  H52      1.0000 0.85920  0.20810  0.49580  Biso   1.000  H
  C68      1.0000 0.94600  0.36060  0.56190  Biso   1.000  C
  H53      1.0000 0.94630  0.32250  0.59860  Biso   1.000  H
  H54      1.0000 0.93700  0.43870  0.56050  Biso   1.000  H
  C69      1.0000 0.00390  0.35380  0.58760  Biso   1.000  C
  C70      1.0000 0.02060  0.23450  0.58490  Biso   1.000  C
  C71      1.0000 0.00920  0.13790  0.60380  Biso   1.000  C
  C72      1.0000 0.02760  0.03250  0.60520  Biso   1.000  C
  H55      1.0000 0.01850  0.96960  0.61840  Biso   1.000  H
  C73      1.0000 0.05890  0.02410  0.58720  Biso   1.000  C
  C74      1.0000 0.07380  0.11860  0.57050  Biso   1.000  C
  H56      1.0000 0.09790  0.11270  0.56180  Biso   1.000  H
  C75      1.0000 0.05360  0.21900  0.56690  Biso   1.000  C
  C76      1.0000 0.14220  0.34440  0.74850  Biso   1.000  C
  H57      1.0000 0.14270  0.28910  0.77690  Biso   1.000  H
  C77      1.0000 0.16320  0.45490  0.70220  Biso   1.000  C
  H58      1.0000 0.18340  0.49260  0.69280  Biso   1.000  H
  C78      1.0000 0.04220  0.39640  0.66750  Biso   1.000  C
  H59      1.0000 0.04110  0.34640  0.69910  Biso   1.000  H
  H60      1.0000 0.03020  0.47000  0.66930  Biso   1.000  H
  N31      1.0000 0.83190  0.22470  0.39130  Biso   1.000  N
  N32      1.0000 0.90430  0.31120  0.48850  Biso   1.000  N
  N33      1.0000 0.89970  0.34060  0.42730  Biso   1.000  N
  N34      1.0000 0.18490  0.37120  0.75540  Biso   1.000  N
  N35      1.0000 0.11190  0.47630  0.66640  Biso   1.000  N
  N36      1.0000 0.09980  0.40400  0.69780  Biso   1.000  N
  O6       1.0000 0.00420  0.42560  0.54010  Biso   1.000  O
  Cu11     1.0000 0.75880  0.17354  0.32614  Biso   1.000  Cu
  Cu12     1.0000 0.94594  0.45322  0.43343  Biso   1.000  Cu
  F11      1.0000 0.97650  0.14330  0.62220  Biso   1.000  F
  F12      1.0000 0.07530  0.92060  0.58550  Biso   1.000  F
  C79      1.0000 0.35530  0.21580  0.86930  Biso   1.000  C
  H61      1.0000 0.34230  0.21440  0.82030  Biso   1.000  H
  C80      1.0000 0.36410  0.25870  0.96480  Biso   1.000  C
  H62      1.0000 0.35920  0.29190  0.99580  Biso   1.000  H
  C81      1.0000 0.44600  0.13940  0.06190  Biso   1.000  C
  H63      1.0000 0.44630  0.17750  0.09860  Biso   1.000  H
  H64      1.0000 0.43700  0.06130  0.06050  Biso   1.000  H
  C82      1.0000 0.50390  0.14620  0.08760  Biso   1.000  C
  C83      1.0000 0.52060  0.26550  0.08490  Biso   1.000  C
  C84      1.0000 0.50920  0.36210  0.10380  Biso   1.000  C
  C85      1.0000 0.52760  0.46750  0.10520  Biso   1.000  C
  H65      1.0000 0.51850  0.53040  0.11840  Biso   1.000  H
  C86      1.0000 0.55890  0.47590  0.08720  Biso   1.000  C
  C87      1.0000 0.57380  0.38140  0.07050  Biso   1.000  C
  H66      1.0000 0.59790  0.38730  0.06180  Biso   1.000  H
  C88      1.0000 0.55360  0.28100  0.06690  Biso   1.000  C
  C89      1.0000 0.64220  0.15560  0.24850  Biso   1.000  C
  H67      1.0000 0.64270  0.21090  0.27690  Biso   1.000  H
  C90      1.0000 0.66320  0.04510  0.20220  Biso   1.000  C
  H68      1.0000 0.68340  0.00740  0.19280  Biso   1.000  H
  C91      1.0000 0.54220  0.10360  0.16750  Biso   1.000  C
  H69      1.0000 0.54110  0.15360  0.19910  Biso   1.000  H
  H70      1.0000 0.53020  0.03000  0.16930  Biso   1.000  H
  N37      1.0000 0.33190  0.27530  0.89130  Biso   1.000  N
  N38      1.0000 0.40430  0.18880  0.98850  Biso   1.000  N
  N39      1.0000 0.39970  0.15940  0.92730  Biso   1.000  N
  N40      1.0000 0.68490  0.12880  0.25540  Biso   1.000  N
  N41      1.0000 0.61190  0.02370  0.16640  Biso   1.000  N
  N42      1.0000 0.59980  0.09600  0.19780  Biso   1.000  N
  O7       1.0000 0.50420  0.07440  0.04010  Biso   1.000  O
  Cu13     1.0000 0.25880  0.32646  0.82614  Biso   1.000  Cu
  Cu14     1.0000 0.44594  0.04678  0.93343  Biso   1.000  Cu
  F13      1.0000 0.47650  0.35670  0.12220  Biso   1.000  F
  F14      1.0000 0.57530  0.57940  0.08550  Biso   1.000  F
  C92      1.0000 0.14470  0.71580  0.63070  Biso   1.000  C
  H71      1.0000 0.15770  0.71440  0.67970  Biso   1.000  H
  C93      1.0000 0.13590  0.75870  0.53520  Biso   1.000  C
  H72      1.0000 0.14080  0.79190  0.50420  Biso   1.000  H
  C94      1.0000 0.05400  0.63940  0.43810  Biso   1.000  C
  H73      1.0000 0.05370  0.67750  0.40140  Biso   1.000  H
  H74      1.0000 0.06300  0.56130  0.43950  Biso   1.000  H
  C95      1.0000 0.99610  0.64620  0.41240  Biso   1.000  C
  C96      1.0000 0.97940  0.76550  0.41510  Biso   1.000  C
  C97      1.0000 0.99080  0.86210  0.39620  Biso   1.000  C
  C98      1.0000 0.97240  0.96750  0.39480  Biso   1.000  C
  H75      1.0000 0.98150  0.03040  0.38160  Biso   1.000  H
  C99      1.0000 0.94110  0.97590  0.41280  Biso   1.000  C
  C100     1.0000 0.92620  0.88140  0.42950  Biso   1.000  C
  H76      1.0000 0.90210  0.88730  0.43820  Biso   1.000  H
  C101     1.0000 0.94640  0.78100  0.43310  Biso   1.000  C
  C102     1.0000 0.85780  0.65560  0.25150  Biso   1.000  C
  H77      1.0000 0.85730  0.71090  0.22310  Biso   1.000  H
  C103     1.0000 0.83680  0.54510  0.29780  Biso   1.000  C
  H78      1.0000 0.81660  0.50740  0.30720  Biso   1.000  H
  C104     1.0000 0.95780  0.60360  0.33250  Biso   1.000  C
  H79      1.0000 0.95890  0.65360  0.30090  Biso   1.000  H
  H80      1.0000 0.96980  0.53000  0.33070  Biso   1.000  H
  N43      1.0000 0.16810  0.77530  0.60870  Biso   1.000  N
  N44      1.0000 0.09570  0.68880  0.51150  Biso   1.000  N
  N45      1.0000 0.10030  0.65940  0.57270  Biso   1.000  N
  N46      1.0000 0.81510  0.62880  0.24460  Biso   1.000  N
  N47      1.0000 0.88810  0.52370  0.33360  Biso   1.000  N
  N48      1.0000 0.90020  0.59600  0.30220  Biso   1.000  N
  O8       1.0000 0.99580  0.57440  0.45990  Biso   1.000  O
  Cu15     1.0000 0.24120  0.82646  0.67386  Biso   1.000  Cu
  Cu16     1.0000 0.05406  0.54678  0.56657  Biso   1.000  Cu
  F15      1.0000 0.02350  0.85670  0.37780  Biso   1.000  F
  F16      1.0000 0.92470  0.07940  0.41450  Biso   1.000  F
