data_image0
_cell_length_a       13.758
_cell_length_b       17.565
_cell_length_c       16.921
_cell_angle_alpha    90
_cell_angle_beta     100.07
_cell_angle_gamma    90

_symmetry_space_group_name_H-M    "P 1"
_symmetry_int_tables_number       1

loop_
  _symmetry_equiv_pos_as_xyz
  'x, y, z'

loop_
  _atom_site_label
  _atom_site_occupancy
  _atom_site_fract_x
  _atom_site_fract_y
  _atom_site_fract_z
  _atom_site_thermal_displace_type
  _atom_site_B_iso_or_equiv
  _atom_site_type_symbol
  N1       1.0000 0.51560  0.01040  0.88300  Biso   1.000  N
  N2       1.0000 0.58300  0.01800  0.77650  Biso   1.000  N
  N3       1.0000 0.49970  0.61480  0.49100  Biso   1.000  N
  C1       1.0000 0.49750  0.05690  0.75800  Biso   1.000  C
  H1       1.0000 0.47180  0.08250  0.70940  Biso   1.000  H
  N4       1.0000 0.54310  0.73080  0.47320  Biso   1.000  N
  C2       1.0000 0.65450  0.01630  0.72220  Biso   1.000  C
  H2       1.0000 0.72100  0.00850  0.75440  Biso   1.000  H
  H3       1.0000 0.65420  0.06660  0.69580  Biso   1.000  H
  C3       1.0000 0.44780  0.73490  0.47870  Biso   1.000  C
  H4       1.0000 0.40730  0.77900  0.47540  Biso   1.000  H
  C4       1.0000 0.57410  0.65930  0.48110  Biso   1.000  C
  H5       1.0000 0.63950  0.64260  0.47980  Biso   1.000  H
  N5       1.0000 0.45860  0.05110  0.82280  Biso   1.000  N
  C5       1.0000 0.63690  0.95620  0.65860  Biso   1.000  C
  C6       1.0000 0.54910  0.95200  0.60440  Biso   1.000  C
  H6       1.0000 0.49600  0.98470  0.61080  Biso   1.000  H
  C7       1.0000 0.59320  0.99160  0.85050  Biso   1.000  C
  H7       1.0000 0.64820  0.96310  0.87680  Biso   1.000  H
  C8       1.0000 0.61290  0.85200  0.53110  Biso   1.000  C
  C9       1.0000 0.60220  0.79850  0.46100  Biso   1.000  C
  H8       1.0000 0.57010  0.82550  0.41200  Biso   1.000  H
  H9       1.0000 0.66840  0.78200  0.45270  Biso   1.000  H
  C10      1.0000 0.70050  0.85430  0.58600  Biso   1.000  C
  H10      1.0000 0.75260  0.82030  0.58060  Biso   1.000  H
  N6       1.0000 0.42270  0.66410  0.48980  Biso   1.000  N
  C11      1.0000 0.53710  0.90110  0.54150  Biso   1.000  C
  H11      1.0000 0.47640  0.89960  0.50480  Biso   1.000  H
  C12      1.0000 0.71180  0.90620  0.64890  Biso   1.000  C
  H12      1.0000 0.77220  0.90750  0.68600  Biso   1.000  H
  N7       1.0000 0.48440  0.51040  0.61700  Biso   1.000  N
  N8       1.0000 0.41700  0.51800  0.72350  Biso   1.000  N
  N9       1.0000 0.50030  0.11480  0.00900  Biso   1.000  N
  C13      1.0000 0.50250  0.55690  0.74200  Biso   1.000  C
  H13      1.0000 0.52820  0.58250  0.79060  Biso   1.000  H
  N10      1.0000 0.45690  0.23080  0.02680  Biso   1.000  N
  C14      1.0000 0.34550  0.51630  0.77780  Biso   1.000  C
  H14      1.0000 0.27900  0.50850  0.74560  Biso   1.000  H
  H15      1.0000 0.34580  0.56660  0.80420  Biso   1.000  H
  C15      1.0000 0.55220  0.23490  0.02130  Biso   1.000  C
  H16      1.0000 0.59270  0.27900  0.02460  Biso   1.000  H
  C16      1.0000 0.42590  0.15930  0.01890  Biso   1.000  C
  H17      1.0000 0.36050  0.14260  0.02020  Biso   1.000  H
  N11      1.0000 0.54140  0.55110  0.67720  Biso   1.000  N
  C17      1.0000 0.36310  0.45620  0.84140  Biso   1.000  C
  C18      1.0000 0.45090  0.45200  0.89560  Biso   1.000  C
  H18      1.0000 0.50400  0.48470  0.88920  Biso   1.000  H
  C19      1.0000 0.40680  0.49160  0.64950  Biso   1.000  C
  H19      1.0000 0.35180  0.46310  0.62320  Biso   1.000  H
  C20      1.0000 0.38710  0.35200  0.96890  Biso   1.000  C
  C21      1.0000 0.39780  0.29850  0.03900  Biso   1.000  C
  H20      1.0000 0.42990  0.32550  0.08800  Biso   1.000  H
  H21      1.0000 0.33160  0.28200  0.04730  Biso   1.000  H
  C22      1.0000 0.29950  0.35430  0.91400  Biso   1.000  C
  H22      1.0000 0.24740  0.32030  0.91940  Biso   1.000  H
  N12      1.0000 0.57730  0.16410  0.01020  Biso   1.000  N
  C23      1.0000 0.46290  0.40110  0.95850  Biso   1.000  C
  H23      1.0000 0.52360  0.39960  0.99520  Biso   1.000  H
  C24      1.0000 0.28820  0.40620  0.85110  Biso   1.000  C
  H24      1.0000 0.22780  0.40750  0.81400  Biso   1.000  H
  N13      1.0000 0.48440  0.98960  0.11700  Biso   1.000  N
  N14      1.0000 0.41700  0.98200  0.22350  Biso   1.000  N
  N15      1.0000 0.50030  0.38520  0.50900  Biso   1.000  N
  C25      1.0000 0.50250  0.94310  0.24200  Biso   1.000  C
  H25      1.0000 0.52820  0.91750  0.29060  Biso   1.000  H
  N16      1.0000 0.45690  0.26920  0.52680  Biso   1.000  N
  C26      1.0000 0.34550  0.98370  0.27780  Biso   1.000  C
  H26      1.0000 0.27900  0.99150  0.24560  Biso   1.000  H
  H27      1.0000 0.34580  0.93340  0.30420  Biso   1.000  H
  C27      1.0000 0.55220  0.26510  0.52130  Biso   1.000  C
  H28      1.0000 0.59270  0.22100  0.52460  Biso   1.000  H
  C28      1.0000 0.42590  0.34070  0.51890  Biso   1.000  C
  H29      1.0000 0.36050  0.35740  0.52020  Biso   1.000  H
  N17      1.0000 0.54140  0.94890  0.17720  Biso   1.000  N
  C29      1.0000 0.36310  0.04380  0.34140  Biso   1.000  C
  C30      1.0000 0.45090  0.04800  0.39560  Biso   1.000  C
  H30      1.0000 0.50400  0.01530  0.38920  Biso   1.000  H
  C31      1.0000 0.40680  0.00840  0.14950  Biso   1.000  C
  H31      1.0000 0.35180  0.03690  0.12320  Biso   1.000  H
  C32      1.0000 0.38710  0.14800  0.46890  Biso   1.000  C
  C33      1.0000 0.39780  0.20150  0.53900  Biso   1.000  C
  H32      1.0000 0.42990  0.17450  0.58800  Biso   1.000  H
  H33      1.0000 0.33160  0.21800  0.54730  Biso   1.000  H
  C34      1.0000 0.29950  0.14570  0.41400  Biso   1.000  C
  H34      1.0000 0.24740  0.17970  0.41940  Biso   1.000  H
  N18      1.0000 0.57730  0.33590  0.51020  Biso   1.000  N
  C35      1.0000 0.46290  0.09890  0.45850  Biso   1.000  C
  H35      1.0000 0.52360  0.10040  0.49520  Biso   1.000  H
  C36      1.0000 0.28820  0.09380  0.35110  Biso   1.000  C
  H36      1.0000 0.22780  0.09250  0.31400  Biso   1.000  H
  N19      1.0000 0.51560  0.48960  0.38300  Biso   1.000  N
  N20      1.0000 0.58300  0.48200  0.27650  Biso   1.000  N
  N21      1.0000 0.49970  0.88520  0.99100  Biso   1.000  N
  C37      1.0000 0.49750  0.44310  0.25800  Biso   1.000  C
  H37      1.0000 0.47180  0.41750  0.20940  Biso   1.000  H
  N22      1.0000 0.54310  0.76920  0.97320  Biso   1.000  N
  C38      1.0000 0.65450  0.48370  0.22220  Biso   1.000  C
  H38      1.0000 0.72100  0.49150  0.25440  Biso   1.000  H
  H39      1.0000 0.65420  0.43340  0.19580  Biso   1.000  H
  C39      1.0000 0.44780  0.76510  0.97870  Biso   1.000  C
  H40      1.0000 0.40730  0.72100  0.97540  Biso   1.000  H
  C40      1.0000 0.57410  0.84070  0.98110  Biso   1.000  C
  H41      1.0000 0.63950  0.85740  0.97980  Biso   1.000  H
  N23      1.0000 0.45860  0.44890  0.32280  Biso   1.000  N
  C41      1.0000 0.63690  0.54380  0.15860  Biso   1.000  C
  C42      1.0000 0.54910  0.54800  0.10440  Biso   1.000  C
  H42      1.0000 0.49600  0.51530  0.11080  Biso   1.000  H
  C43      1.0000 0.59320  0.50840  0.35050  Biso   1.000  C
  H43      1.0000 0.64820  0.53690  0.37680  Biso   1.000  H
  C44      1.0000 0.61290  0.64800  0.03110  Biso   1.000  C
  C45      1.0000 0.60220  0.70150  0.96100  Biso   1.000  C
  H44      1.0000 0.57010  0.67450  0.91200  Biso   1.000  H
  H45      1.0000 0.66840  0.71800  0.95270  Biso   1.000  H
  C46      1.0000 0.70050  0.64570  0.08600  Biso   1.000  C
  H46      1.0000 0.75260  0.67970  0.08060  Biso   1.000  H
  N24      1.0000 0.42270  0.83590  0.98980  Biso   1.000  N
  C47      1.0000 0.53710  0.59890  0.04150  Biso   1.000  C
  H47      1.0000 0.47640  0.60040  0.00480  Biso   1.000  H
  C48      1.0000 0.71180  0.59380  0.14890  Biso   1.000  C
  H48      1.0000 0.77220  0.59250  0.18600  Biso   1.000  H
  Cu1      1.0000 0.50000  0.00000  0.00000  Biso   1.000  Cu
  Cu2      1.0000 0.50000  0.50000  0.50000  Biso   1.000  Cu
