data_image0
_cell_length_a       12.668
_cell_length_b       22.274
_cell_length_c       14.366
_cell_angle_alpha    90
_cell_angle_beta     123.07
_cell_angle_gamma    90

_symmetry_space_group_name_H-M    "P 1"
_symmetry_int_tables_number       1

loop_
  _symmetry_equiv_pos_as_xyz
  'x, y, z'

loop_
  _atom_site_label
  _atom_site_occupancy
  _atom_site_fract_x
  _atom_site_fract_y
  _atom_site_fract_z
  _atom_site_thermal_displace_type
  _atom_site_B_iso_or_equiv
  _atom_site_type_symbol
  Ag1      1.0000 0.01544  0.93001  0.43772  Biso   1.000  Ag
  Ag2      1.0000 0.22820  0.94609  0.35720  Biso   1.000  Ag
  Ag3      1.0000 0.04190  0.20539  0.34026  Biso   1.000  Ag
  N1       1.0000 0.07410  0.11790  0.39460  Biso   1.000  N
  N2       1.0000 0.18400  0.18450  0.32080  Biso   1.000  N
  N3       1.0000 0.11240  0.73010  0.15830  Biso   1.000  N
  N4       1.0000 0.01530  0.77570  0.25850  Biso   1.000  N
  N5       1.0000 0.97750  0.80890  0.31640  Biso   1.000  N
  C1       1.0000 0.13860  0.08920  0.35970  Biso   1.000  C
  C2       1.0000 0.11400  0.80590  0.26940  Biso   1.000  C
  C3       1.0000 0.20510  0.12620  0.32000  Biso   1.000  C
  C4       1.0000 0.15600  0.70290  0.10110  Biso   1.000  C
  H1       1.0000 0.11800  0.66770  0.06270  Biso   1.000  H
  C5       1.0000 0.17010  0.78150  0.21270  Biso   1.000  C
  C6       1.0000 0.24810  0.22250  0.29890  Biso   1.000  C
  H2       1.0000 0.23720  0.26350  0.30300  Biso   1.000  H
  N6       1.0000 0.07170  0.02330  0.41750  Biso   1.000  N
  N7       1.0000 0.13710  0.03140  0.37080  Biso   1.000  N
  N8       1.0000 0.13600  0.85420  0.32920  Biso   1.000  N
  N9       1.0000 0.04930  0.85310  0.35640  Biso   1.000  N
  C7       1.0000 0.34230  0.14280  0.26220  Biso   1.000  C
  H3       1.0000 0.39120  0.12850  0.23670  Biso   1.000  H
  C8       1.0000 0.26700  0.80550  0.21050  Biso   1.000  C
  H4       1.0000 0.30320  0.84110  0.24850  Biso   1.000  H
  C9       1.0000 0.28200  0.10300  0.29200  Biso   1.000  C
  H5       1.0000 0.29350  0.06180  0.29260  Biso   1.000  H
  C10      1.0000 0.31200  0.77890  0.15500  Biso   1.000  C
  H6       1.0000 0.37910  0.79520  0.15360  Biso   1.000  H
  C11      1.0000 0.25300  0.72540  0.09820  Biso   1.000  C
  H7       1.0000 0.28080  0.70540  0.05870  Biso   1.000  H
  C12      1.0000 0.33000  0.20390  0.27060  Biso   1.000  C
  H8       1.0000 0.37530  0.23140  0.25740  Biso   1.000  H
  N10      1.0000 0.03140  0.07380  0.43000  Biso   1.000  N
  Ag4      1.0000 0.98456  0.43001  0.06228  Biso   1.000  Ag
  Ag5      1.0000 0.77180  0.44609  0.14280  Biso   1.000  Ag
  Ag6      1.0000 0.95810  0.70539  0.15974  Biso   1.000  Ag
  N11      1.0000 0.92590  0.61790  0.10540  Biso   1.000  N
  N12      1.0000 0.81600  0.68450  0.17920  Biso   1.000  N
  N13      1.0000 0.88760  0.23010  0.34170  Biso   1.000  N
  N14      1.0000 0.98470  0.27570  0.24150  Biso   1.000  N
  N15      1.0000 0.02250  0.30890  0.18360  Biso   1.000  N
  C13      1.0000 0.86140  0.58920  0.14030  Biso   1.000  C
  C14      1.0000 0.88600  0.30590  0.23060  Biso   1.000  C
  C15      1.0000 0.79490  0.62620  0.18000  Biso   1.000  C
  C16      1.0000 0.84400  0.20290  0.39890  Biso   1.000  C
  H9       1.0000 0.88200  0.16770  0.43730  Biso   1.000  H
  C17      1.0000 0.82990  0.28150  0.28730  Biso   1.000  C
  C18      1.0000 0.75190  0.72250  0.20110  Biso   1.000  C
  H10      1.0000 0.76280  0.76350  0.19700  Biso   1.000  H
  N16      1.0000 0.92830  0.52330  0.08250  Biso   1.000  N
  N17      1.0000 0.86290  0.53140  0.12920  Biso   1.000  N
  N18      1.0000 0.86400  0.35420  0.17080  Biso   1.000  N
  N19      1.0000 0.95070  0.35310  0.14360  Biso   1.000  N
  C19      1.0000 0.65770  0.64280  0.23780  Biso   1.000  C
  H11      1.0000 0.60880  0.62850  0.26330  Biso   1.000  H
  C20      1.0000 0.73300  0.30550  0.28950  Biso   1.000  C
  H12      1.0000 0.69680  0.34110  0.25150  Biso   1.000  H
  C21      1.0000 0.71800  0.60300  0.20800  Biso   1.000  C
  H13      1.0000 0.70650  0.56180  0.20740  Biso   1.000  H
  C22      1.0000 0.68800  0.27890  0.34500  Biso   1.000  C
  H14      1.0000 0.62090  0.29520  0.34640  Biso   1.000  H
  C23      1.0000 0.74700  0.22540  0.40180  Biso   1.000  C
  H15      1.0000 0.71920  0.20540  0.44130  Biso   1.000  H
  C24      1.0000 0.67000  0.70390  0.22940  Biso   1.000  C
  H16      1.0000 0.62470  0.73140  0.24260  Biso   1.000  H
  N20      1.0000 0.96860  0.57380  0.07000  Biso   1.000  N
  Ag7      1.0000 0.98456  0.06999  0.56228  Biso   1.000  Ag
  Ag8      1.0000 0.77180  0.05391  0.64280  Biso   1.000  Ag
  Ag9      1.0000 0.95810  0.79461  0.65974  Biso   1.000  Ag
  N21      1.0000 0.92590  0.88210  0.60540  Biso   1.000  N
  N22      1.0000 0.81600  0.81550  0.67920  Biso   1.000  N
  N23      1.0000 0.88760  0.26990  0.84170  Biso   1.000  N
  N24      1.0000 0.98470  0.22430  0.74150  Biso   1.000  N
  N25      1.0000 0.02250  0.19110  0.68360  Biso   1.000  N
  C25      1.0000 0.86140  0.91080  0.64030  Biso   1.000  C
  C26      1.0000 0.88600  0.19410  0.73060  Biso   1.000  C
  C27      1.0000 0.79490  0.87380  0.68000  Biso   1.000  C
  C28      1.0000 0.84400  0.29710  0.89890  Biso   1.000  C
  H17      1.0000 0.88200  0.33230  0.93730  Biso   1.000  H
  C29      1.0000 0.82990  0.21850  0.78730  Biso   1.000  C
  C30      1.0000 0.75190  0.77750  0.70110  Biso   1.000  C
  H18      1.0000 0.76280  0.73650  0.69700  Biso   1.000  H
  N26      1.0000 0.92830  0.97670  0.58250  Biso   1.000  N
  N27      1.0000 0.86290  0.96860  0.62920  Biso   1.000  N
  N28      1.0000 0.86400  0.14580  0.67080  Biso   1.000  N
  N29      1.0000 0.95070  0.14690  0.64360  Biso   1.000  N
  C31      1.0000 0.65770  0.85720  0.73780  Biso   1.000  C
  H19      1.0000 0.60880  0.87150  0.76330  Biso   1.000  H
  C32      1.0000 0.73300  0.19450  0.78950  Biso   1.000  C
  H20      1.0000 0.69680  0.15890  0.75150  Biso   1.000  H
  C33      1.0000 0.71800  0.89700  0.70800  Biso   1.000  C
  H21      1.0000 0.70650  0.93820  0.70740  Biso   1.000  H
  C34      1.0000 0.68800  0.22110  0.84500  Biso   1.000  C
  H22      1.0000 0.62090  0.20480  0.84640  Biso   1.000  H
  C35      1.0000 0.74700  0.27460  0.90180  Biso   1.000  C
  H23      1.0000 0.71920  0.29460  0.94130  Biso   1.000  H
  C36      1.0000 0.67000  0.79610  0.72940  Biso   1.000  C
  H24      1.0000 0.62470  0.76860  0.74260  Biso   1.000  H
  N30      1.0000 0.96860  0.92620  0.57000  Biso   1.000  N
  Ag10     1.0000 0.01544  0.56999  0.93772  Biso   1.000  Ag
  Ag11     1.0000 0.22820  0.55391  0.85720  Biso   1.000  Ag
  Ag12     1.0000 0.04190  0.29461  0.84026  Biso   1.000  Ag
  N31      1.0000 0.07410  0.38210  0.89460  Biso   1.000  N
  N32      1.0000 0.18400  0.31550  0.82080  Biso   1.000  N
  N33      1.0000 0.11240  0.76990  0.65830  Biso   1.000  N
  N34      1.0000 0.01530  0.72430  0.75850  Biso   1.000  N
  N35      1.0000 0.97750  0.69110  0.81640  Biso   1.000  N
  C37      1.0000 0.13860  0.41080  0.85970  Biso   1.000  C
  C38      1.0000 0.11400  0.69410  0.76940  Biso   1.000  C
  C39      1.0000 0.20510  0.37380  0.82000  Biso   1.000  C
  C40      1.0000 0.15600  0.79710  0.60110  Biso   1.000  C
  H25      1.0000 0.11800  0.83230  0.56270  Biso   1.000  H
  C41      1.0000 0.17010  0.71850  0.71270  Biso   1.000  C
  C42      1.0000 0.24810  0.27750  0.79890  Biso   1.000  C
  H26      1.0000 0.23720  0.23650  0.80300  Biso   1.000  H
  N36      1.0000 0.07170  0.47670  0.91750  Biso   1.000  N
  N37      1.0000 0.13710  0.46860  0.87080  Biso   1.000  N
  N38      1.0000 0.13600  0.64580  0.82920  Biso   1.000  N
  N39      1.0000 0.04930  0.64690  0.85640  Biso   1.000  N
  C43      1.0000 0.34230  0.35720  0.76220  Biso   1.000  C
  H27      1.0000 0.39120  0.37150  0.73670  Biso   1.000  H
  C44      1.0000 0.26700  0.69450  0.71050  Biso   1.000  C
  H28      1.0000 0.30320  0.65890  0.74850  Biso   1.000  H
  C45      1.0000 0.28200  0.39700  0.79200  Biso   1.000  C
  H29      1.0000 0.29350  0.43820  0.79260  Biso   1.000  H
  C46      1.0000 0.31200  0.72110  0.65500  Biso   1.000  C
  H30      1.0000 0.37910  0.70480  0.65360  Biso   1.000  H
  C47      1.0000 0.25300  0.77460  0.59820  Biso   1.000  C
  H31      1.0000 0.28080  0.79460  0.55870  Biso   1.000  H
  C48      1.0000 0.33000  0.29610  0.77060  Biso   1.000  C
  H32      1.0000 0.37530  0.26860  0.75740  Biso   1.000  H
  N40      1.0000 0.03140  0.42620  0.93000  Biso   1.000  N
