data_image0
_cell_length_a       10.2544
_cell_length_b       16.3825
_cell_length_c       16.6409
_cell_angle_alpha    90
_cell_angle_beta     103.783
_cell_angle_gamma    90

_symmetry_space_group_name_H-M    "P 1"
_symmetry_int_tables_number       1

loop_
  _symmetry_equiv_pos_as_xyz
  'x, y, z'

loop_
  _atom_site_label
  _atom_site_occupancy
  _atom_site_fract_x
  _atom_site_fract_y
  _atom_site_fract_z
  _atom_site_thermal_displace_type
  _atom_site_B_iso_or_equiv
  _atom_site_type_symbol
  Pb1      1.0000 0.53951  0.53171  0.82975  Biso   1.000  Pb
  P1       1.0000 0.57100  0.60527  0.03795  Biso   1.000  P
  S1       1.0000 0.76800  0.82344  0.28517  Biso   1.000  S
  C1       1.0000 0.60060  0.71090  0.06920  Biso   1.000  C
  C2       1.0000 0.65620  0.72710  0.15280  Biso   1.000  C
  H1       1.0000 0.67620  0.68410  0.19030  Biso   1.000  H
  C3       1.0000 0.68200  0.80760  0.18050  Biso   1.000  C
  C4       1.0000 0.65260  0.87150  0.12370  Biso   1.000  C
  H2       1.0000 0.66970  0.92520  0.14130  Biso   1.000  H
  C5       1.0000 0.59760  0.85440  0.04080  Biso   1.000  C
  H3       1.0000 0.57650  0.89710  0.00300  Biso   1.000  H
  C6       1.0000 0.57380  0.77460  0.01360  Biso   1.000  C
  H4       1.0000 0.53970  0.76400  0.95760  Biso   1.000  H
  O1       1.0000 0.70320  0.55850  0.06680  Biso   1.000  O
  O2       1.0000 0.51290  0.60450  0.94530  Biso   1.000  O
  O3       1.0000 0.46380  0.57250  0.08090  Biso   1.000  O
  O4       1.0000 0.90270  0.79890  0.28700  Biso   1.000  O
  O5       1.0000 0.76200  0.91030  0.30260  Biso   1.000  O
  O6       1.0000 0.70430  0.77320  0.33600  Biso   1.000  O
  Pb2      1.0000 0.46049  0.46829  0.17025  Biso   1.000  Pb
  P2       1.0000 0.42900  0.39473  0.96205  Biso   1.000  P
  S2       1.0000 0.23200  0.17656  0.71483  Biso   1.000  S
  C7       1.0000 0.39940  0.28910  0.93080  Biso   1.000  C
  C8       1.0000 0.34380  0.27290  0.84720  Biso   1.000  C
  H5       1.0000 0.32380  0.31590  0.80970  Biso   1.000  H
  C9       1.0000 0.31800  0.19240  0.81950  Biso   1.000  C
  C10      1.0000 0.34740  0.12850  0.87630  Biso   1.000  C
  H6       1.0000 0.33030  0.07480  0.85870  Biso   1.000  H
  C11      1.0000 0.40240  0.14560  0.95920  Biso   1.000  C
  H7       1.0000 0.42350  0.10290  0.99700  Biso   1.000  H
  C12      1.0000 0.42620  0.22540  0.98640  Biso   1.000  C
  H8       1.0000 0.46030  0.23600  0.04240  Biso   1.000  H
  O7       1.0000 0.29680  0.44150  0.93320  Biso   1.000  O
  O8       1.0000 0.48710  0.39550  0.05470  Biso   1.000  O
  O9       1.0000 0.53620  0.42750  0.91910  Biso   1.000  O
  O10      1.0000 0.09730  0.20110  0.71300  Biso   1.000  O
  O11      1.0000 0.23800  0.08970  0.69740  Biso   1.000  O
  O12      1.0000 0.29570  0.22680  0.66400  Biso   1.000  O
  Pb3      1.0000 0.96049  0.03171  0.67025  Biso   1.000  Pb
  P3       1.0000 0.92900  0.10527  0.46205  Biso   1.000  P
  S3       1.0000 0.73200  0.32344  0.21483  Biso   1.000  S
  C13      1.0000 0.89940  0.21090  0.43080  Biso   1.000  C
  C14      1.0000 0.84380  0.22710  0.34720  Biso   1.000  C
  H9       1.0000 0.82380  0.18410  0.30970  Biso   1.000  H
  C15      1.0000 0.81800  0.30760  0.31950  Biso   1.000  C
  C16      1.0000 0.84740  0.37150  0.37630  Biso   1.000  C
  H10      1.0000 0.83030  0.42520  0.35870  Biso   1.000  H
  C17      1.0000 0.90240  0.35440  0.45920  Biso   1.000  C
  H11      1.0000 0.92350  0.39710  0.49700  Biso   1.000  H
  C18      1.0000 0.92620  0.27460  0.48640  Biso   1.000  C
  H12      1.0000 0.96030  0.26400  0.54240  Biso   1.000  H
  O13      1.0000 0.79680  0.05850  0.43320  Biso   1.000  O
  O14      1.0000 0.98710  0.10450  0.55470  Biso   1.000  O
  O15      1.0000 0.03620  0.07250  0.41910  Biso   1.000  O
  O16      1.0000 0.59730  0.29890  0.21300  Biso   1.000  O
  O17      1.0000 0.73800  0.41030  0.19740  Biso   1.000  O
  O18      1.0000 0.79570  0.27320  0.16400  Biso   1.000  O
  Pb4      1.0000 0.03951  0.96829  0.32975  Biso   1.000  Pb
  P4       1.0000 0.07100  0.89473  0.53795  Biso   1.000  P
  S4       1.0000 0.26800  0.67656  0.78517  Biso   1.000  S
  C19      1.0000 0.10060  0.78910  0.56920  Biso   1.000  C
  C20      1.0000 0.15620  0.77290  0.65280  Biso   1.000  C
  H13      1.0000 0.17620  0.81590  0.69030  Biso   1.000  H
  C21      1.0000 0.18200  0.69240  0.68050  Biso   1.000  C
  C22      1.0000 0.15260  0.62850  0.62370  Biso   1.000  C
  H14      1.0000 0.16970  0.57480  0.64130  Biso   1.000  H
  C23      1.0000 0.09760  0.64560  0.54080  Biso   1.000  C
  H15      1.0000 0.07650  0.60290  0.50300  Biso   1.000  H
  C24      1.0000 0.07380  0.72540  0.51360  Biso   1.000  C
  H16      1.0000 0.03970  0.73600  0.45760  Biso   1.000  H
  O19      1.0000 0.20320  0.94150  0.56680  Biso   1.000  O
  O20      1.0000 0.01290  0.89550  0.44530  Biso   1.000  O
  O21      1.0000 0.96380  0.92750  0.58090  Biso   1.000  O
  O22      1.0000 0.40270  0.70110  0.78700  Biso   1.000  O
  O23      1.0000 0.26200  0.58970  0.80260  Biso   1.000  O
  O24      1.0000 0.20430  0.72680  0.83600  Biso   1.000  O
