data_image0
_cell_length_a       15.29
_cell_length_b       24.48
_cell_length_c       21.79
_cell_angle_alpha    90
_cell_angle_beta     90
_cell_angle_gamma    90

_symmetry_space_group_name_H-M    "P 1"
_symmetry_int_tables_number       1

loop_
  _symmetry_equiv_pos_as_xyz
  'x, y, z'

loop_
  _atom_site_label
  _atom_site_occupancy
  _atom_site_fract_x
  _atom_site_fract_y
  _atom_site_fract_z
  _atom_site_thermal_displace_type
  _atom_site_B_iso_or_equiv
  _atom_site_type_symbol
  O1       1.0000 0.09730  0.31092  0.16570  Biso   1.000  O
  O2       1.0000 0.07310  0.30780  0.36980  Biso   1.000  O
  O3       1.0000 0.16510  0.30730  0.25620  Biso   1.000  O
  C1       1.0000 0.15420  0.32580  0.20150  Biso   1.000  C
  C2       1.0000 0.21750  0.36750  0.18350  Biso   1.000  C
  C3       1.0000 0.28910  0.38170  0.22090  Biso   1.000  C
  H1       1.0000 0.29820  0.36170  0.25770  Biso   1.000  H
  C4       1.0000 0.34610  0.42300  0.20670  Biso   1.000  C
  H2       1.0000 0.39490  0.43020  0.23250  Biso   1.000  H
  C5       1.0000 0.33200  0.45470  0.15410  Biso   1.000  C
  H3       1.0000 0.36830  0.48530  0.14570  Biso   1.000  H
  C6       1.0000 0.26390  0.44080  0.11380  Biso   1.000  C
  C7       1.0000 0.20600  0.39760  0.12930  Biso   1.000  C
  H4       1.0000 0.15890  0.38900  0.10270  Biso   1.000  H
  C8       1.0000 0.25200  0.47120  0.05520  Biso   1.000  C
  C9       1.0000 0.07750  0.39740  0.44700  Biso   1.000  C
  C10      1.0000 0.07750  0.43790  0.49200  Biso   1.000  C
  C11      1.0000 0.92480  0.42070  0.51190  Biso   1.000  C
  C12      1.0000 0.92470  0.38010  0.46640  Biso   1.000  C
  H5       1.0000 0.12950  0.38940  0.42480  Biso   1.000  H
  H6       1.0000 0.87270  0.42850  0.53400  Biso   1.000  H
  H7       1.0000 0.87240  0.36060  0.45760  Biso   1.000  H
  O4       1.0000 0.59730  0.81092  0.16570  Biso   1.000  O
  O5       1.0000 0.57310  0.80780  0.36980  Biso   1.000  O
  O6       1.0000 0.66510  0.80730  0.25620  Biso   1.000  O
  C13      1.0000 0.65420  0.82580  0.20150  Biso   1.000  C
  C14      1.0000 0.71750  0.86750  0.18350  Biso   1.000  C
  C15      1.0000 0.78910  0.88170  0.22090  Biso   1.000  C
  H8       1.0000 0.79820  0.86170  0.25770  Biso   1.000  H
  C16      1.0000 0.84610  0.92300  0.20670  Biso   1.000  C
  H9       1.0000 0.89490  0.93020  0.23250  Biso   1.000  H
  C17      1.0000 0.83200  0.95470  0.15410  Biso   1.000  C
  H10      1.0000 0.86830  0.98530  0.14570  Biso   1.000  H
  C18      1.0000 0.76390  0.94080  0.11380  Biso   1.000  C
  C19      1.0000 0.70600  0.89760  0.12930  Biso   1.000  C
  H11      1.0000 0.65890  0.88900  0.10270  Biso   1.000  H
  C20      1.0000 0.75200  0.97120  0.05520  Biso   1.000  C
  C21      1.0000 0.57750  0.89740  0.44700  Biso   1.000  C
  C22      1.0000 0.57750  0.93790  0.49200  Biso   1.000  C
  C23      1.0000 0.42480  0.92070  0.51190  Biso   1.000  C
  C24      1.0000 0.42470  0.88010  0.46640  Biso   1.000  C
  H12      1.0000 0.62950  0.88940  0.42480  Biso   1.000  H
  H13      1.0000 0.37270  0.92850  0.53400  Biso   1.000  H
  H14      1.0000 0.37240  0.86060  0.45760  Biso   1.000  H
  O7       1.0000 0.90270  0.18908  0.16570  Biso   1.000  O
  O8       1.0000 0.92690  0.19220  0.36980  Biso   1.000  O
  O9       1.0000 0.83490  0.19270  0.25620  Biso   1.000  O
  C25      1.0000 0.84580  0.17420  0.20150  Biso   1.000  C
  C26      1.0000 0.78250  0.13250  0.18350  Biso   1.000  C
  C27      1.0000 0.71090  0.11830  0.22090  Biso   1.000  C
  H15      1.0000 0.70180  0.13830  0.25770  Biso   1.000  H
  C28      1.0000 0.65390  0.07700  0.20670  Biso   1.000  C
  H16      1.0000 0.60510  0.06980  0.23250  Biso   1.000  H
  C29      1.0000 0.66800  0.04530  0.15410  Biso   1.000  C
  H17      1.0000 0.63170  0.01470  0.14570  Biso   1.000  H
  C30      1.0000 0.73610  0.05920  0.11380  Biso   1.000  C
  C31      1.0000 0.79400  0.10240  0.12930  Biso   1.000  C
  H18      1.0000 0.84110  0.11100  0.10270  Biso   1.000  H
  C32      1.0000 0.74800  0.02880  0.05520  Biso   1.000  C
  C33      1.0000 0.92250  0.10260  0.44700  Biso   1.000  C
  C34      1.0000 0.92250  0.06210  0.49200  Biso   1.000  C
  C35      1.0000 0.07520  0.07930  0.51190  Biso   1.000  C
  C36      1.0000 0.07530  0.11990  0.46640  Biso   1.000  C
  H19      1.0000 0.87050  0.11060  0.42480  Biso   1.000  H
  H20      1.0000 0.12730  0.07150  0.53400  Biso   1.000  H
  H21      1.0000 0.12760  0.13940  0.45760  Biso   1.000  H
  O10      1.0000 0.40270  0.68908  0.16570  Biso   1.000  O
  O11      1.0000 0.42690  0.69220  0.36980  Biso   1.000  O
  O12      1.0000 0.33490  0.69270  0.25620  Biso   1.000  O
  C37      1.0000 0.34580  0.67420  0.20150  Biso   1.000  C
  C38      1.0000 0.28250  0.63250  0.18350  Biso   1.000  C
  C39      1.0000 0.21090  0.61830  0.22090  Biso   1.000  C
  H22      1.0000 0.20180  0.63830  0.25770  Biso   1.000  H
  C40      1.0000 0.15390  0.57700  0.20670  Biso   1.000  C
  H23      1.0000 0.10510  0.56980  0.23250  Biso   1.000  H
  C41      1.0000 0.16800  0.54530  0.15410  Biso   1.000  C
  H24      1.0000 0.13170  0.51470  0.14570  Biso   1.000  H
  C42      1.0000 0.23610  0.55920  0.11380  Biso   1.000  C
  C43      1.0000 0.29400  0.60240  0.12930  Biso   1.000  C
  H25      1.0000 0.34110  0.61100  0.10270  Biso   1.000  H
  C44      1.0000 0.24800  0.52880  0.05520  Biso   1.000  C
  C45      1.0000 0.42250  0.60260  0.44700  Biso   1.000  C
  C46      1.0000 0.42250  0.56210  0.49200  Biso   1.000  C
  C47      1.0000 0.57520  0.57930  0.51190  Biso   1.000  C
  C48      1.0000 0.57530  0.61990  0.46640  Biso   1.000  C
  H26      1.0000 0.37050  0.61060  0.42480  Biso   1.000  H
  H27      1.0000 0.62730  0.57150  0.53400  Biso   1.000  H
  H28      1.0000 0.62760  0.63940  0.45760  Biso   1.000  H
  O13      1.0000 0.90270  0.81092  0.83430  Biso   1.000  O
  O14      1.0000 0.92690  0.80780  0.63020  Biso   1.000  O
  O15      1.0000 0.83490  0.80730  0.74380  Biso   1.000  O
  C49      1.0000 0.84580  0.82580  0.79850  Biso   1.000  C
  C50      1.0000 0.78250  0.86750  0.81650  Biso   1.000  C
  C51      1.0000 0.71090  0.88170  0.77910  Biso   1.000  C
  H29      1.0000 0.70180  0.86170  0.74230  Biso   1.000  H
  C52      1.0000 0.65390  0.92300  0.79330  Biso   1.000  C
  H30      1.0000 0.60510  0.93020  0.76750  Biso   1.000  H
  C53      1.0000 0.66800  0.95470  0.84590  Biso   1.000  C
  H31      1.0000 0.63170  0.98530  0.85430  Biso   1.000  H
  C54      1.0000 0.73610  0.94080  0.88620  Biso   1.000  C
  C55      1.0000 0.79400  0.89760  0.87070  Biso   1.000  C
  H32      1.0000 0.84110  0.88900  0.89730  Biso   1.000  H
  C56      1.0000 0.74800  0.97120  0.94480  Biso   1.000  C
  C57      1.0000 0.92250  0.89740  0.55300  Biso   1.000  C
  C58      1.0000 0.92250  0.93790  0.50800  Biso   1.000  C
  C59      1.0000 0.07520  0.92070  0.48810  Biso   1.000  C
  C60      1.0000 0.07530  0.88010  0.53360  Biso   1.000  C
  H33      1.0000 0.87050  0.88940  0.57520  Biso   1.000  H
  H34      1.0000 0.12730  0.92850  0.46600  Biso   1.000  H
  H35      1.0000 0.12760  0.86060  0.54240  Biso   1.000  H
  O16      1.0000 0.40270  0.31092  0.83430  Biso   1.000  O
  O17      1.0000 0.42690  0.30780  0.63020  Biso   1.000  O
  O18      1.0000 0.33490  0.30730  0.74380  Biso   1.000  O
  C61      1.0000 0.34580  0.32580  0.79850  Biso   1.000  C
  C62      1.0000 0.28250  0.36750  0.81650  Biso   1.000  C
  C63      1.0000 0.21090  0.38170  0.77910  Biso   1.000  C
  H36      1.0000 0.20180  0.36170  0.74230  Biso   1.000  H
  C64      1.0000 0.15390  0.42300  0.79330  Biso   1.000  C
  H37      1.0000 0.10510  0.43020  0.76750  Biso   1.000  H
  C65      1.0000 0.16800  0.45470  0.84590  Biso   1.000  C
  H38      1.0000 0.13170  0.48530  0.85430  Biso   1.000  H
  C66      1.0000 0.23610  0.44080  0.88620  Biso   1.000  C
  C67      1.0000 0.29400  0.39760  0.87070  Biso   1.000  C
  H39      1.0000 0.34110  0.38900  0.89730  Biso   1.000  H
  C68      1.0000 0.24800  0.47120  0.94480  Biso   1.000  C
  C69      1.0000 0.42250  0.39740  0.55300  Biso   1.000  C
  C70      1.0000 0.42250  0.43790  0.50800  Biso   1.000  C
  C71      1.0000 0.57520  0.42070  0.48810  Biso   1.000  C
  C72      1.0000 0.57530  0.38010  0.53360  Biso   1.000  C
  H40      1.0000 0.37050  0.38940  0.57520  Biso   1.000  H
  H41      1.0000 0.62730  0.42850  0.46600  Biso   1.000  H
  H42      1.0000 0.62760  0.36060  0.54240  Biso   1.000  H
  O19      1.0000 0.09730  0.68908  0.83430  Biso   1.000  O
  O20      1.0000 0.07310  0.69220  0.63020  Biso   1.000  O
  O21      1.0000 0.16510  0.69270  0.74380  Biso   1.000  O
  C73      1.0000 0.15420  0.67420  0.79850  Biso   1.000  C
  C74      1.0000 0.21750  0.63250  0.81650  Biso   1.000  C
  C75      1.0000 0.28910  0.61830  0.77910  Biso   1.000  C
  H43      1.0000 0.29820  0.63830  0.74230  Biso   1.000  H
  C76      1.0000 0.34610  0.57700  0.79330  Biso   1.000  C
  H44      1.0000 0.39490  0.56980  0.76750  Biso   1.000  H
  C77      1.0000 0.33200  0.54530  0.84590  Biso   1.000  C
  H45      1.0000 0.36830  0.51470  0.85430  Biso   1.000  H
  C78      1.0000 0.26390  0.55920  0.88620  Biso   1.000  C
  C79      1.0000 0.20600  0.60240  0.87070  Biso   1.000  C
  H46      1.0000 0.15890  0.61100  0.89730  Biso   1.000  H
  C80      1.0000 0.25200  0.52880  0.94480  Biso   1.000  C
  C81      1.0000 0.07750  0.60260  0.55300  Biso   1.000  C
  C82      1.0000 0.07750  0.56210  0.50800  Biso   1.000  C
  C83      1.0000 0.92480  0.57930  0.48810  Biso   1.000  C
  C84      1.0000 0.92470  0.61990  0.53360  Biso   1.000  C
  H47      1.0000 0.12950  0.61060  0.57520  Biso   1.000  H
  H48      1.0000 0.87270  0.57150  0.46600  Biso   1.000  H
  H49      1.0000 0.87240  0.63940  0.54240  Biso   1.000  H
  O22      1.0000 0.59730  0.18908  0.83430  Biso   1.000  O
  O23      1.0000 0.57310  0.19220  0.63020  Biso   1.000  O
  O24      1.0000 0.66510  0.19270  0.74380  Biso   1.000  O
  C85      1.0000 0.65420  0.17420  0.79850  Biso   1.000  C
  C86      1.0000 0.71750  0.13250  0.81650  Biso   1.000  C
  C87      1.0000 0.78910  0.11830  0.77910  Biso   1.000  C
  H50      1.0000 0.79820  0.13830  0.74230  Biso   1.000  H
  C88      1.0000 0.84610  0.07700  0.79330  Biso   1.000  C
  H51      1.0000 0.89490  0.06980  0.76750  Biso   1.000  H
  C89      1.0000 0.83200  0.04530  0.84590  Biso   1.000  C
  H52      1.0000 0.86830  0.01470  0.85430  Biso   1.000  H
  C90      1.0000 0.76390  0.05920  0.88620  Biso   1.000  C
  C91      1.0000 0.70600  0.10240  0.87070  Biso   1.000  C
  H53      1.0000 0.65890  0.11100  0.89730  Biso   1.000  H
  C92      1.0000 0.75200  0.02880  0.94480  Biso   1.000  C
  C93      1.0000 0.57750  0.10260  0.55300  Biso   1.000  C
  C94      1.0000 0.57750  0.06210  0.50800  Biso   1.000  C
  C95      1.0000 0.42480  0.07930  0.48810  Biso   1.000  C
  C96      1.0000 0.42470  0.11990  0.53360  Biso   1.000  C
  H54      1.0000 0.62950  0.11060  0.57520  Biso   1.000  H
  H55      1.0000 0.37270  0.07150  0.46600  Biso   1.000  H
  H56      1.0000 0.37240  0.13940  0.54240  Biso   1.000  H
  O25      1.0000 0.90270  0.68908  0.83430  Biso   1.000  O
  O26      1.0000 0.92690  0.69220  0.63020  Biso   1.000  O
  O27      1.0000 0.83490  0.69270  0.74380  Biso   1.000  O
  C97      1.0000 0.84580  0.67420  0.79850  Biso   1.000  C
  C98      1.0000 0.78250  0.63250  0.81650  Biso   1.000  C
  C99      1.0000 0.71090  0.61830  0.77910  Biso   1.000  C
  H57      1.0000 0.70180  0.63830  0.74230  Biso   1.000  H
  C100     1.0000 0.65390  0.57700  0.79330  Biso   1.000  C
  H58      1.0000 0.60510  0.56980  0.76750  Biso   1.000  H
  C101     1.0000 0.66800  0.54530  0.84590  Biso   1.000  C
  H59      1.0000 0.63170  0.51470  0.85430  Biso   1.000  H
  C102     1.0000 0.73610  0.55920  0.88620  Biso   1.000  C
  C103     1.0000 0.79400  0.60240  0.87070  Biso   1.000  C
  H60      1.0000 0.84110  0.61100  0.89730  Biso   1.000  H
  C104     1.0000 0.74800  0.52880  0.94480  Biso   1.000  C
  C105     1.0000 0.92250  0.60260  0.55300  Biso   1.000  C
  C106     1.0000 0.92250  0.56210  0.50800  Biso   1.000  C
  C107     1.0000 0.07520  0.57930  0.48810  Biso   1.000  C
  C108     1.0000 0.07530  0.61990  0.53360  Biso   1.000  C
  H61      1.0000 0.87050  0.61060  0.57520  Biso   1.000  H
  H62      1.0000 0.12730  0.57150  0.46600  Biso   1.000  H
  H63      1.0000 0.12760  0.63940  0.54240  Biso   1.000  H
  O28      1.0000 0.40270  0.18908  0.83430  Biso   1.000  O
  O29      1.0000 0.42690  0.19220  0.63020  Biso   1.000  O
  O30      1.0000 0.33490  0.19270  0.74380  Biso   1.000  O
  C109     1.0000 0.34580  0.17420  0.79850  Biso   1.000  C
  C110     1.0000 0.28250  0.13250  0.81650  Biso   1.000  C
  C111     1.0000 0.21090  0.11830  0.77910  Biso   1.000  C
  H64      1.0000 0.20180  0.13830  0.74230  Biso   1.000  H
  C112     1.0000 0.15390  0.07700  0.79330  Biso   1.000  C
  H65      1.0000 0.10510  0.06980  0.76750  Biso   1.000  H
  C113     1.0000 0.16800  0.04530  0.84590  Biso   1.000  C
  H66      1.0000 0.13170  0.01470  0.85430  Biso   1.000  H
  C114     1.0000 0.23610  0.05920  0.88620  Biso   1.000  C
  C115     1.0000 0.29400  0.10240  0.87070  Biso   1.000  C
  H67      1.0000 0.34110  0.11100  0.89730  Biso   1.000  H
  C116     1.0000 0.24800  0.02880  0.94480  Biso   1.000  C
  C117     1.0000 0.42250  0.10260  0.55300  Biso   1.000  C
  C118     1.0000 0.42250  0.06210  0.50800  Biso   1.000  C
  C119     1.0000 0.57520  0.07930  0.48810  Biso   1.000  C
  C120     1.0000 0.57530  0.11990  0.53360  Biso   1.000  C
  H68      1.0000 0.37050  0.11060  0.57520  Biso   1.000  H
  H69      1.0000 0.62730  0.07150  0.46600  Biso   1.000  H
  H70      1.0000 0.62760  0.13940  0.54240  Biso   1.000  H
  O31      1.0000 0.09730  0.81092  0.83430  Biso   1.000  O
  O32      1.0000 0.07310  0.80780  0.63020  Biso   1.000  O
  O33      1.0000 0.16510  0.80730  0.74380  Biso   1.000  O
  C121     1.0000 0.15420  0.82580  0.79850  Biso   1.000  C
  C122     1.0000 0.21750  0.86750  0.81650  Biso   1.000  C
  C123     1.0000 0.28910  0.88170  0.77910  Biso   1.000  C
  H71      1.0000 0.29820  0.86170  0.74230  Biso   1.000  H
  C124     1.0000 0.34610  0.92300  0.79330  Biso   1.000  C
  H72      1.0000 0.39490  0.93020  0.76750  Biso   1.000  H
  C125     1.0000 0.33200  0.95470  0.84590  Biso   1.000  C
  H73      1.0000 0.36830  0.98530  0.85430  Biso   1.000  H
  C126     1.0000 0.26390  0.94080  0.88620  Biso   1.000  C
  C127     1.0000 0.20600  0.89760  0.87070  Biso   1.000  C
  H74      1.0000 0.15890  0.88900  0.89730  Biso   1.000  H
  C128     1.0000 0.25200  0.97120  0.94480  Biso   1.000  C
  C129     1.0000 0.07750  0.89740  0.55300  Biso   1.000  C
  C130     1.0000 0.07750  0.93790  0.50800  Biso   1.000  C
  C131     1.0000 0.92480  0.92070  0.48810  Biso   1.000  C
  C132     1.0000 0.92470  0.88010  0.53360  Biso   1.000  C
  H75      1.0000 0.12950  0.88940  0.57520  Biso   1.000  H
  H76      1.0000 0.87270  0.92850  0.46600  Biso   1.000  H
  H77      1.0000 0.87240  0.86060  0.54240  Biso   1.000  H
  O34      1.0000 0.59730  0.31092  0.83430  Biso   1.000  O
  O35      1.0000 0.57310  0.30780  0.63020  Biso   1.000  O
  O36      1.0000 0.66510  0.30730  0.74380  Biso   1.000  O
  C133     1.0000 0.65420  0.32580  0.79850  Biso   1.000  C
  C134     1.0000 0.71750  0.36750  0.81650  Biso   1.000  C
  C135     1.0000 0.78910  0.38170  0.77910  Biso   1.000  C
  H78      1.0000 0.79820  0.36170  0.74230  Biso   1.000  H
  C136     1.0000 0.84610  0.42300  0.79330  Biso   1.000  C
  H79      1.0000 0.89490  0.43020  0.76750  Biso   1.000  H
  C137     1.0000 0.83200  0.45470  0.84590  Biso   1.000  C
  H80      1.0000 0.86830  0.48530  0.85430  Biso   1.000  H
  C138     1.0000 0.76390  0.44080  0.88620  Biso   1.000  C
  C139     1.0000 0.70600  0.39760  0.87070  Biso   1.000  C
  H81      1.0000 0.65890  0.38900  0.89730  Biso   1.000  H
  C140     1.0000 0.75200  0.47120  0.94480  Biso   1.000  C
  C141     1.0000 0.57750  0.39740  0.55300  Biso   1.000  C
  C142     1.0000 0.57750  0.43790  0.50800  Biso   1.000  C
  C143     1.0000 0.42480  0.42070  0.48810  Biso   1.000  C
  C144     1.0000 0.42470  0.38010  0.53360  Biso   1.000  C
  H82      1.0000 0.62950  0.38940  0.57520  Biso   1.000  H
  H83      1.0000 0.37270  0.42850  0.46600  Biso   1.000  H
  H84      1.0000 0.37240  0.36060  0.54240  Biso   1.000  H
  O37      1.0000 0.09730  0.18908  0.16570  Biso   1.000  O
  O38      1.0000 0.07310  0.19220  0.36980  Biso   1.000  O
  O39      1.0000 0.16510  0.19270  0.25620  Biso   1.000  O
  C145     1.0000 0.15420  0.17420  0.20150  Biso   1.000  C
  C146     1.0000 0.21750  0.13250  0.18350  Biso   1.000  C
  C147     1.0000 0.28910  0.11830  0.22090  Biso   1.000  C
  H85      1.0000 0.29820  0.13830  0.25770  Biso   1.000  H
  C148     1.0000 0.34610  0.07700  0.20670  Biso   1.000  C
  H86      1.0000 0.39490  0.06980  0.23250  Biso   1.000  H
  C149     1.0000 0.33200  0.04530  0.15410  Biso   1.000  C
  H87      1.0000 0.36830  0.01470  0.14570  Biso   1.000  H
  C150     1.0000 0.26390  0.05920  0.11380  Biso   1.000  C
  C151     1.0000 0.20600  0.10240  0.12930  Biso   1.000  C
  H88      1.0000 0.15890  0.11100  0.10270  Biso   1.000  H
  C152     1.0000 0.25200  0.02880  0.05520  Biso   1.000  C
  C153     1.0000 0.07750  0.10260  0.44700  Biso   1.000  C
  C154     1.0000 0.07750  0.06210  0.49200  Biso   1.000  C
  C155     1.0000 0.92480  0.07930  0.51190  Biso   1.000  C
  C156     1.0000 0.92470  0.11990  0.46640  Biso   1.000  C
  H89      1.0000 0.12950  0.11060  0.42480  Biso   1.000  H
  H90      1.0000 0.87270  0.07150  0.53400  Biso   1.000  H
  H91      1.0000 0.87240  0.13940  0.45760  Biso   1.000  H
  O40      1.0000 0.59730  0.68908  0.16570  Biso   1.000  O
  O41      1.0000 0.57310  0.69220  0.36980  Biso   1.000  O
  O42      1.0000 0.66510  0.69270  0.25620  Biso   1.000  O
  C157     1.0000 0.65420  0.67420  0.20150  Biso   1.000  C
  C158     1.0000 0.71750  0.63250  0.18350  Biso   1.000  C
  C159     1.0000 0.78910  0.61830  0.22090  Biso   1.000  C
  H92      1.0000 0.79820  0.63830  0.25770  Biso   1.000  H
  C160     1.0000 0.84610  0.57700  0.20670  Biso   1.000  C
  H93      1.0000 0.89490  0.56980  0.23250  Biso   1.000  H
  C161     1.0000 0.83200  0.54530  0.15410  Biso   1.000  C
  H94      1.0000 0.86830  0.51470  0.14570  Biso   1.000  H
  C162     1.0000 0.76390  0.55920  0.11380  Biso   1.000  C
  C163     1.0000 0.70600  0.60240  0.12930  Biso   1.000  C
  H95      1.0000 0.65890  0.61100  0.10270  Biso   1.000  H
  C164     1.0000 0.75200  0.52880  0.05520  Biso   1.000  C
  C165     1.0000 0.57750  0.60260  0.44700  Biso   1.000  C
  C166     1.0000 0.57750  0.56210  0.49200  Biso   1.000  C
  C167     1.0000 0.42480  0.57930  0.51190  Biso   1.000  C
  C168     1.0000 0.42470  0.61990  0.46640  Biso   1.000  C
  H96      1.0000 0.62950  0.61060  0.42480  Biso   1.000  H
  H97      1.0000 0.37270  0.57150  0.53400  Biso   1.000  H
  H98      1.0000 0.37240  0.63940  0.45760  Biso   1.000  H
  O43      1.0000 0.90270  0.31092  0.16570  Biso   1.000  O
  O44      1.0000 0.92690  0.30780  0.36980  Biso   1.000  O
  O45      1.0000 0.83490  0.30730  0.25620  Biso   1.000  O
  C169     1.0000 0.84580  0.32580  0.20150  Biso   1.000  C
  C170     1.0000 0.78250  0.36750  0.18350  Biso   1.000  C
  C171     1.0000 0.71090  0.38170  0.22090  Biso   1.000  C
  H99      1.0000 0.70180  0.36170  0.25770  Biso   1.000  H
  C172     1.0000 0.65390  0.42300  0.20670  Biso   1.000  C
  H100     1.0000 0.60510  0.43020  0.23250  Biso   1.000  H
  C173     1.0000 0.66800  0.45470  0.15410  Biso   1.000  C
  H101     1.0000 0.63170  0.48530  0.14570  Biso   1.000  H
  C174     1.0000 0.73610  0.44080  0.11380  Biso   1.000  C
  C175     1.0000 0.79400  0.39760  0.12930  Biso   1.000  C
  H102     1.0000 0.84110  0.38900  0.10270  Biso   1.000  H
  C176     1.0000 0.74800  0.47120  0.05520  Biso   1.000  C
  C177     1.0000 0.92250  0.39740  0.44700  Biso   1.000  C
  C178     1.0000 0.92250  0.43790  0.49200  Biso   1.000  C
  C179     1.0000 0.07520  0.42070  0.51190  Biso   1.000  C
  C180     1.0000 0.07530  0.38010  0.46640  Biso   1.000  C
  H103     1.0000 0.87050  0.38940  0.42480  Biso   1.000  H
  H104     1.0000 0.12730  0.42850  0.53400  Biso   1.000  H
  H105     1.0000 0.12760  0.36060  0.45760  Biso   1.000  H
  O46      1.0000 0.40270  0.81092  0.16570  Biso   1.000  O
  O47      1.0000 0.42690  0.80780  0.36980  Biso   1.000  O
  O48      1.0000 0.33490  0.80730  0.25620  Biso   1.000  O
  C181     1.0000 0.34580  0.82580  0.20150  Biso   1.000  C
  C182     1.0000 0.28250  0.86750  0.18350  Biso   1.000  C
  C183     1.0000 0.21090  0.88170  0.22090  Biso   1.000  C
  H106     1.0000 0.20180  0.86170  0.25770  Biso   1.000  H
  C184     1.0000 0.15390  0.92300  0.20670  Biso   1.000  C
  H107     1.0000 0.10510  0.93020  0.23250  Biso   1.000  H
  C185     1.0000 0.16800  0.95470  0.15410  Biso   1.000  C
  H108     1.0000 0.13170  0.98530  0.14570  Biso   1.000  H
  C186     1.0000 0.23610  0.94080  0.11380  Biso   1.000  C
  C187     1.0000 0.29400  0.89760  0.12930  Biso   1.000  C
  H109     1.0000 0.34110  0.88900  0.10270  Biso   1.000  H
  C188     1.0000 0.24800  0.97120  0.05520  Biso   1.000  C
  C189     1.0000 0.42250  0.89740  0.44700  Biso   1.000  C
  C190     1.0000 0.42250  0.93790  0.49200  Biso   1.000  C
  C191     1.0000 0.57520  0.92070  0.51190  Biso   1.000  C
  C192     1.0000 0.57530  0.88010  0.46640  Biso   1.000  C
  H110     1.0000 0.37050  0.88940  0.42480  Biso   1.000  H
  H111     1.0000 0.62730  0.92850  0.53400  Biso   1.000  H
  H112     1.0000 0.62760  0.86060  0.45760  Biso   1.000  H
  Fe1      1.0000 0.00000  0.25000  0.17320  Biso   1.000  Fe
  O49      1.0000 0.00000  0.25000  0.26480  Biso   1.000  O
  Fe2      1.0000 0.50000  0.75000  0.17320  Biso   1.000  Fe
  O50      1.0000 0.50000  0.75000  0.26480  Biso   1.000  O
  Fe3      1.0000 0.00000  0.75000  0.82680  Biso   1.000  Fe
  O51      1.0000 0.00000  0.75000  0.73520  Biso   1.000  O
  Fe4      1.0000 0.50000  0.25000  0.82680  Biso   1.000  Fe
  O52      1.0000 0.50000  0.25000  0.73520  Biso   1.000  O
  Fe5      1.0000 0.10610  0.25000  0.30657  Biso   1.000  Fe
  Fe6      1.0000 0.60610  0.75000  0.30657  Biso   1.000  Fe
  Fe7      1.0000 0.89390  0.25000  0.30657  Biso   1.000  Fe
  Fe8      1.0000 0.39390  0.75000  0.30657  Biso   1.000  Fe
  Fe9      1.0000 0.89390  0.75000  0.69343  Biso   1.000  Fe
  Fe10     1.0000 0.39390  0.25000  0.69343  Biso   1.000  Fe
  Fe11     1.0000 0.10610  0.75000  0.69343  Biso   1.000  Fe
  Fe12     1.0000 0.60610  0.25000  0.69343  Biso   1.000  Fe
  C193     1.0000 0.25000  0.44500  0.00000  Biso   1.000  C
  H113     1.0000 0.25000  0.40620  0.00000  Biso   1.000  H
  C194     1.0000 0.75000  0.05500  0.00000  Biso   1.000  C
  H114     1.0000 0.75000  0.09380  0.00000  Biso   1.000  H
  C195     1.0000 0.75000  0.94500  0.00000  Biso   1.000  C
  H115     1.0000 0.75000  0.90620  0.00000  Biso   1.000  H
  C196     1.0000 0.25000  0.55500  0.00000  Biso   1.000  C
  H116     1.0000 0.25000  0.59380  0.00000  Biso   1.000  H
  C197     1.0000 0.75000  0.55500  0.00000  Biso   1.000  C
  H117     1.0000 0.75000  0.59380  0.00000  Biso   1.000  H
  C198     1.0000 0.25000  0.05500  0.00000  Biso   1.000  C
  H118     1.0000 0.25000  0.09380  0.00000  Biso   1.000  H
  C199     1.0000 0.25000  0.94500  0.00000  Biso   1.000  C
  H119     1.0000 0.25000  0.90620  0.00000  Biso   1.000  H
  C200     1.0000 0.75000  0.44500  0.00000  Biso   1.000  C
  H120     1.0000 0.75000  0.40620  0.00000  Biso   1.000  H
  C201     1.0000 0.00000  0.32360  0.38820  Biso   1.000  C
  C202     1.0000 0.00000  0.36840  0.43470  Biso   1.000  C
  C203     1.0000 0.00000  0.44910  0.52450  Biso   1.000  C
  H121     1.0000 0.00000  0.46310  0.56520  Biso   1.000  H
  C204     1.0000 0.50000  0.82360  0.38820  Biso   1.000  C
  C205     1.0000 0.50000  0.86840  0.43470  Biso   1.000  C
  C206     1.0000 0.50000  0.94910  0.52450  Biso   1.000  C
  H122     1.0000 0.50000  0.96310  0.56520  Biso   1.000  H
  C207     1.0000 0.00000  0.17640  0.38820  Biso   1.000  C
  C208     1.0000 0.00000  0.13160  0.43470  Biso   1.000  C
  C209     1.0000 0.00000  0.05090  0.52450  Biso   1.000  C
  H123     1.0000 0.00000  0.03690  0.56520  Biso   1.000  H
  C210     1.0000 0.50000  0.67640  0.38820  Biso   1.000  C
  C211     1.0000 0.50000  0.63160  0.43470  Biso   1.000  C
  C212     1.0000 0.50000  0.55090  0.52450  Biso   1.000  C
  H124     1.0000 0.50000  0.53690  0.56520  Biso   1.000  H
  C213     1.0000 0.00000  0.82360  0.61180  Biso   1.000  C
  C214     1.0000 0.00000  0.86840  0.56530  Biso   1.000  C
  C215     1.0000 0.00000  0.94910  0.47550  Biso   1.000  C
  H125     1.0000 0.00000  0.96310  0.43480  Biso   1.000  H
  C216     1.0000 0.50000  0.32360  0.61180  Biso   1.000  C
  C217     1.0000 0.50000  0.36840  0.56530  Biso   1.000  C
  C218     1.0000 0.50000  0.44910  0.47550  Biso   1.000  C
  H126     1.0000 0.50000  0.46310  0.43480  Biso   1.000  H
  C219     1.0000 0.00000  0.67640  0.61180  Biso   1.000  C
  C220     1.0000 0.00000  0.63160  0.56530  Biso   1.000  C
  C221     1.0000 0.00000  0.55090  0.47550  Biso   1.000  C
  H127     1.0000 0.00000  0.53690  0.43480  Biso   1.000  H
  C222     1.0000 0.50000  0.17640  0.61180  Biso   1.000  C
  C223     1.0000 0.50000  0.13160  0.56530  Biso   1.000  C
  C224     1.0000 0.50000  0.05090  0.47550  Biso   1.000  C
  H128     1.0000 0.50000  0.03690  0.43480  Biso   1.000  H
