data_image0
_cell_length_a       46.561
_cell_length_b       5.9263
_cell_length_c       33.495
_cell_angle_alpha    90
_cell_angle_beta     128.794
_cell_angle_gamma    90

_symmetry_space_group_name_H-M    "P 1"
_symmetry_int_tables_number       1

loop_
  _symmetry_equiv_pos_as_xyz
  'x, y, z'

loop_
  _atom_site_label
  _atom_site_occupancy
  _atom_site_fract_x
  _atom_site_fract_y
  _atom_site_fract_z
  _atom_site_thermal_displace_type
  _atom_site_B_iso_or_equiv
  _atom_site_type_symbol
  O1       1.0000 0.28876  0.70190  0.84918  Biso   1.000  O
  O2       1.0000 0.30763  0.03540  0.84415  Biso   1.000  O
  C1       1.0000 0.31456  0.83590  0.86240  Biso   1.000  C
  C2       1.0000 0.35384  0.76660  0.90140  Biso   1.000  C
  C3       1.0000 0.36296  0.55750  0.92450  Biso   1.000  C
  H1       1.0000 0.34440  0.45850  0.91610  Biso   1.000  H
  C4       1.0000 0.38177  0.91510  0.91410  Biso   1.000  C
  H2       1.0000 0.37590  0.05640  0.89870  Biso   1.000  H
  C5       1.0000 0.41795  0.85040  0.94932  Biso   1.000  C
  H3       1.0000 0.43660  0.94860  0.95790  Biso   1.000  H
  C6       1.0000 0.39967  0.49380  0.96010  Biso   1.000  C
  H4       1.0000 0.40580  0.35260  0.97560  Biso   1.000  H
  C7       1.0000 0.42679  0.64080  0.97219  Biso   1.000  C
  O3       1.0000 0.46374  0.58360  0.00290  Biso   1.000  O
  C8       1.0000 0.47705  0.43240  0.04272  Biso   1.000  C
  C9       1.0000 0.49444  0.23790  0.04390  Biso   1.000  C
  H5       1.0000 0.49530  0.20430  0.01750  Biso   1.000  H
  C10      1.0000 0.47642  0.48610  0.08240  Biso   1.000  C
  H6       1.0000 0.46560  0.61970  0.08170  Biso   1.000  H
  O4       1.0000 0.50118  0.25690  0.19963  Biso   1.000  O
  Cd1      1.0000 0.74553  0.49939  0.29268  Biso   1.000  Cd
  O5       1.0000 0.52592  0.89850  0.08430  Biso   1.000  O
  O6       1.0000 0.68513  0.46730  0.22507  Biso   1.000  O
  C11      1.0000 0.63666  0.73380  0.19180  Biso   1.000  C
  C12      1.0000 0.67589  0.66040  0.22760  Biso   1.000  C
  C13      1.0000 0.56297  0.85370  0.12281  Biso   1.000  C
  C14      1.0000 0.61062  0.58090  0.15440  Biso   1.000  C
  H7       1.0000 0.61790  0.43730  0.15280  Biso   1.000  H
  O7       1.0000 0.69975  0.80080  0.26215  Biso   1.000  O
  C15      1.0000 0.62489  0.94310  0.19340  Biso   1.000  C
  H8       1.0000 0.64220  0.04550  0.21810  Biso   1.000  H
  C16      1.0000 0.57356  0.64490  0.11950  Biso   1.000  C
  H9       1.0000 0.55620  0.54520  0.09400  Biso   1.000  H
  C17      1.0000 0.51039  0.09740  0.08570  Biso   1.000  C
  C18      1.0000 0.49233  0.33600  0.12370  Biso   1.000  C
  C19      1.0000 0.58849  0.00760  0.16000  Biso   1.000  C
  H10      1.0000 0.58110  0.15000  0.16210  Biso   1.000  H
  C20      1.0000 0.50886  0.14010  0.12520  Biso   1.000  C
  H11      1.0000 0.51880  0.03830  0.15200  Biso   1.000  H
  O8       1.0000 0.48590  0.59900  0.17006  Biso   1.000  O
  C21      1.0000 0.49238  0.40200  0.16600  Biso   1.000  C
  O9       1.0000 0.71124  0.70190  0.65082  Biso   1.000  O
  O10      1.0000 0.69237  0.03540  0.65585  Biso   1.000  O
  C22      1.0000 0.68544  0.83590  0.63760  Biso   1.000  C
  C23      1.0000 0.64616  0.76660  0.59860  Biso   1.000  C
  C24      1.0000 0.63704  0.55750  0.57550  Biso   1.000  C
  H12      1.0000 0.65560  0.45850  0.58390  Biso   1.000  H
  C25      1.0000 0.61823  0.91510  0.58590  Biso   1.000  C
  H13      1.0000 0.62410  0.05640  0.60130  Biso   1.000  H
  C26      1.0000 0.58205  0.85040  0.55068  Biso   1.000  C
  H14      1.0000 0.56340  0.94860  0.54210  Biso   1.000  H
  C27      1.0000 0.60033  0.49380  0.53990  Biso   1.000  C
  H15      1.0000 0.59420  0.35260  0.52440  Biso   1.000  H
  C28      1.0000 0.57321  0.64080  0.52781  Biso   1.000  C
  O11      1.0000 0.53626  0.58360  0.49710  Biso   1.000  O
  C29      1.0000 0.52295  0.43240  0.45728  Biso   1.000  C
  C30      1.0000 0.50556  0.23790  0.45610  Biso   1.000  C
  H16      1.0000 0.50470  0.20430  0.48250  Biso   1.000  H
  C31      1.0000 0.52358  0.48610  0.41760  Biso   1.000  C
  H17      1.0000 0.53440  0.61970  0.41830  Biso   1.000  H
  O12      1.0000 0.49882  0.25690  0.30037  Biso   1.000  O
  Cd2      1.0000 0.25447  0.49939  0.20732  Biso   1.000  Cd
  O13      1.0000 0.47408  0.89850  0.41570  Biso   1.000  O
  O14      1.0000 0.31487  0.46730  0.27493  Biso   1.000  O
  C32      1.0000 0.36334  0.73380  0.30820  Biso   1.000  C
  C33      1.0000 0.32411  0.66040  0.27240  Biso   1.000  C
  C34      1.0000 0.43703  0.85370  0.37719  Biso   1.000  C
  C35      1.0000 0.38938  0.58090  0.34560  Biso   1.000  C
  H18      1.0000 0.38210  0.43730  0.34720  Biso   1.000  H
  O15      1.0000 0.30025  0.80080  0.23785  Biso   1.000  O
  C36      1.0000 0.37511  0.94310  0.30660  Biso   1.000  C
  H19      1.0000 0.35780  0.04550  0.28190  Biso   1.000  H
  C37      1.0000 0.42644  0.64490  0.38050  Biso   1.000  C
  H20      1.0000 0.44380  0.54520  0.40600  Biso   1.000  H
  C38      1.0000 0.48961  0.09740  0.41430  Biso   1.000  C
  C39      1.0000 0.50767  0.33600  0.37630  Biso   1.000  C
  C40      1.0000 0.41151  0.00760  0.34000  Biso   1.000  C
  H21      1.0000 0.41890  0.15000  0.33790  Biso   1.000  H
  C41      1.0000 0.49114  0.14010  0.37480  Biso   1.000  C
  H22      1.0000 0.48120  0.03830  0.34800  Biso   1.000  H
  O16      1.0000 0.51410  0.59900  0.32994  Biso   1.000  O
  C42      1.0000 0.50762  0.40200  0.33400  Biso   1.000  C
  O17      1.0000 0.21124  0.79810  0.15082  Biso   1.000  O
  O18      1.0000 0.19237  0.46460  0.15585  Biso   1.000  O
  C43      1.0000 0.18544  0.66410  0.13760  Biso   1.000  C
  C44      1.0000 0.14616  0.73340  0.09860  Biso   1.000  C
  C45      1.0000 0.13704  0.94250  0.07550  Biso   1.000  C
  H23      1.0000 0.15560  0.04150  0.08390  Biso   1.000  H
  C46      1.0000 0.11823  0.58490  0.08590  Biso   1.000  C
  H24      1.0000 0.12410  0.44360  0.10130  Biso   1.000  H
  C47      1.0000 0.08205  0.64960  0.05068  Biso   1.000  C
  H25      1.0000 0.06340  0.55140  0.04210  Biso   1.000  H
  C48      1.0000 0.10033  0.00620  0.03990  Biso   1.000  C
  H26      1.0000 0.09420  0.14740  0.02440  Biso   1.000  H
  C49      1.0000 0.07321  0.85920  0.02781  Biso   1.000  C
  O19      1.0000 0.03626  0.91640  0.99710  Biso   1.000  O
  C50      1.0000 0.02295  0.06760  0.95728  Biso   1.000  C
  C51      1.0000 0.00556  0.26210  0.95610  Biso   1.000  C
  H27      1.0000 0.00470  0.29570  0.98250  Biso   1.000  H
  C52      1.0000 0.02358  0.01390  0.91760  Biso   1.000  C
  H28      1.0000 0.03440  0.88030  0.91830  Biso   1.000  H
  O20      1.0000 0.99882  0.24310  0.80037  Biso   1.000  O
  Cd3      1.0000 0.75447  0.00061  0.70732  Biso   1.000  Cd
  O21      1.0000 0.97408  0.60150  0.91570  Biso   1.000  O
  O22      1.0000 0.81487  0.03270  0.77493  Biso   1.000  O
  C53      1.0000 0.86334  0.76620  0.80820  Biso   1.000  C
  C54      1.0000 0.82411  0.83960  0.77240  Biso   1.000  C
  C55      1.0000 0.93703  0.64630  0.87719  Biso   1.000  C
  C56      1.0000 0.88938  0.91910  0.84560  Biso   1.000  C
  H29      1.0000 0.88210  0.06270  0.84720  Biso   1.000  H
  O23      1.0000 0.80025  0.69920  0.73785  Biso   1.000  O
  C57      1.0000 0.87511  0.55690  0.80660  Biso   1.000  C
  H30      1.0000 0.85780  0.45450  0.78190  Biso   1.000  H
  C58      1.0000 0.92644  0.85510  0.88050  Biso   1.000  C
  H31      1.0000 0.94380  0.95480  0.90600  Biso   1.000  H
  C59      1.0000 0.98961  0.40260  0.91430  Biso   1.000  C
  C60      1.0000 0.00767  0.16400  0.87630  Biso   1.000  C
  C61      1.0000 0.91151  0.49240  0.84000  Biso   1.000  C
  H32      1.0000 0.91890  0.35000  0.83790  Biso   1.000  H
  C62      1.0000 0.99114  0.35990  0.87480  Biso   1.000  C
  H33      1.0000 0.98120  0.46170  0.84800  Biso   1.000  H
  O24      1.0000 0.01410  0.90100  0.82994  Biso   1.000  O
  C63      1.0000 0.00762  0.09800  0.83400  Biso   1.000  C
  O25      1.0000 0.78876  0.79810  0.34918  Biso   1.000  O
  O26      1.0000 0.80763  0.46460  0.34415  Biso   1.000  O
  C64      1.0000 0.81456  0.66410  0.36240  Biso   1.000  C
  C65      1.0000 0.85384  0.73340  0.40140  Biso   1.000  C
  C66      1.0000 0.86296  0.94250  0.42450  Biso   1.000  C
  H34      1.0000 0.84440  0.04150  0.41610  Biso   1.000  H
  C67      1.0000 0.88177  0.58490  0.41410  Biso   1.000  C
  H35      1.0000 0.87590  0.44360  0.39870  Biso   1.000  H
  C68      1.0000 0.91795  0.64960  0.44932  Biso   1.000  C
  H36      1.0000 0.93660  0.55140  0.45790  Biso   1.000  H
  C69      1.0000 0.89967  0.00620  0.46010  Biso   1.000  C
  H37      1.0000 0.90580  0.14740  0.47560  Biso   1.000  H
  C70      1.0000 0.92679  0.85920  0.47219  Biso   1.000  C
  O27      1.0000 0.96374  0.91640  0.50290  Biso   1.000  O
  C71      1.0000 0.97705  0.06760  0.54272  Biso   1.000  C
  C72      1.0000 0.99444  0.26210  0.54390  Biso   1.000  C
  H38      1.0000 0.99530  0.29570  0.51750  Biso   1.000  H
  C73      1.0000 0.97642  0.01390  0.58240  Biso   1.000  C
  H39      1.0000 0.96560  0.88030  0.58170  Biso   1.000  H
  O28      1.0000 0.00118  0.24310  0.69963  Biso   1.000  O
  Cd4      1.0000 0.24553  0.00061  0.79268  Biso   1.000  Cd
  O29      1.0000 0.02592  0.60150  0.58430  Biso   1.000  O
  O30      1.0000 0.18513  0.03270  0.72507  Biso   1.000  O
  C74      1.0000 0.13666  0.76620  0.69180  Biso   1.000  C
  C75      1.0000 0.17589  0.83960  0.72760  Biso   1.000  C
  C76      1.0000 0.06297  0.64630  0.62281  Biso   1.000  C
  C77      1.0000 0.11062  0.91910  0.65440  Biso   1.000  C
  H40      1.0000 0.11790  0.06270  0.65280  Biso   1.000  H
  O31      1.0000 0.19975  0.69920  0.76215  Biso   1.000  O
  C78      1.0000 0.12489  0.55690  0.69340  Biso   1.000  C
  H41      1.0000 0.14220  0.45450  0.71810  Biso   1.000  H
  C79      1.0000 0.07356  0.85510  0.61950  Biso   1.000  C
  H42      1.0000 0.05620  0.95480  0.59400  Biso   1.000  H
  C80      1.0000 0.01039  0.40260  0.58570  Biso   1.000  C
  C81      1.0000 0.99233  0.16400  0.62370  Biso   1.000  C
  C82      1.0000 0.08849  0.49240  0.66000  Biso   1.000  C
  H43      1.0000 0.08110  0.35000  0.66210  Biso   1.000  H
  C83      1.0000 0.00886  0.35990  0.62520  Biso   1.000  C
  H44      1.0000 0.01880  0.46170  0.65200  Biso   1.000  H
  O32      1.0000 0.98590  0.90100  0.67006  Biso   1.000  O
  C84      1.0000 0.99238  0.09800  0.66600  Biso   1.000  C
  Cd5      1.0000 0.50000  0.54621  0.25000  Biso   1.000  Cd
  Cd6      1.0000 1.00000  0.95379  0.75000  Biso   1.000  Cd
  O33      1.0000 0.78876  0.20190  0.84918  Biso   1.000  O
  O34      1.0000 0.80763  0.53540  0.84415  Biso   1.000  O
  C85      1.0000 0.81456  0.33590  0.86240  Biso   1.000  C
  C86      1.0000 0.85384  0.26660  0.90140  Biso   1.000  C
  C87      1.0000 0.86296  0.05750  0.92450  Biso   1.000  C
  H45      1.0000 0.84440  0.95850  0.91610  Biso   1.000  H
  C88      1.0000 0.88177  0.41510  0.91410  Biso   1.000  C
  H46      1.0000 0.87590  0.55640  0.89870  Biso   1.000  H
  C89      1.0000 0.91795  0.35040  0.94932  Biso   1.000  C
  H47      1.0000 0.93660  0.44860  0.95790  Biso   1.000  H
  C90      1.0000 0.89967  0.99380  0.96010  Biso   1.000  C
  H48      1.0000 0.90580  0.85260  0.97560  Biso   1.000  H
  C91      1.0000 0.92679  0.14080  0.97219  Biso   1.000  C
  O35      1.0000 0.96374  0.08360  0.00290  Biso   1.000  O
  C92      1.0000 0.97705  0.93240  0.04272  Biso   1.000  C
  C93      1.0000 0.99444  0.73790  0.04390  Biso   1.000  C
  H49      1.0000 0.99530  0.70430  0.01750  Biso   1.000  H
  C94      1.0000 0.97642  0.98610  0.08240  Biso   1.000  C
  H50      1.0000 0.96560  0.11970  0.08170  Biso   1.000  H
  O36      1.0000 0.00118  0.75690  0.19963  Biso   1.000  O
  Cd7      1.0000 0.24553  0.99939  0.29268  Biso   1.000  Cd
  O37      1.0000 0.02592  0.39850  0.08430  Biso   1.000  O
  O38      1.0000 0.18513  0.96730  0.22507  Biso   1.000  O
  C95      1.0000 0.13666  0.23380  0.19180  Biso   1.000  C
  C96      1.0000 0.17589  0.16040  0.22760  Biso   1.000  C
  C97      1.0000 0.06297  0.35370  0.12281  Biso   1.000  C
  C98      1.0000 0.11062  0.08090  0.15440  Biso   1.000  C
  H51      1.0000 0.11790  0.93730  0.15280  Biso   1.000  H
  O39      1.0000 0.19975  0.30080  0.26215  Biso   1.000  O
  C99      1.0000 0.12489  0.44310  0.19340  Biso   1.000  C
  H52      1.0000 0.14220  0.54550  0.21810  Biso   1.000  H
  C100     1.0000 0.07356  0.14490  0.11950  Biso   1.000  C
  H53      1.0000 0.05620  0.04520  0.09400  Biso   1.000  H
  C101     1.0000 0.01039  0.59740  0.08570  Biso   1.000  C
  C102     1.0000 0.99233  0.83600  0.12370  Biso   1.000  C
  C103     1.0000 0.08849  0.50760  0.16000  Biso   1.000  C
  H54      1.0000 0.08110  0.65000  0.16210  Biso   1.000  H
  C104     1.0000 0.00886  0.64010  0.12520  Biso   1.000  C
  H55      1.0000 0.01880  0.53830  0.15200  Biso   1.000  H
  O40      1.0000 0.98590  0.09900  0.17006  Biso   1.000  O
  C105     1.0000 0.99238  0.90200  0.16600  Biso   1.000  C
  O41      1.0000 0.21124  0.20190  0.65082  Biso   1.000  O
  O42      1.0000 0.19237  0.53540  0.65585  Biso   1.000  O
  C106     1.0000 0.18544  0.33590  0.63760  Biso   1.000  C
  C107     1.0000 0.14616  0.26660  0.59860  Biso   1.000  C
  C108     1.0000 0.13704  0.05750  0.57550  Biso   1.000  C
  H56      1.0000 0.15560  0.95850  0.58390  Biso   1.000  H
  C109     1.0000 0.11823  0.41510  0.58590  Biso   1.000  C
  H57      1.0000 0.12410  0.55640  0.60130  Biso   1.000  H
  C110     1.0000 0.08205  0.35040  0.55068  Biso   1.000  C
  H58      1.0000 0.06340  0.44860  0.54210  Biso   1.000  H
  C111     1.0000 0.10033  0.99380  0.53990  Biso   1.000  C
  H59      1.0000 0.09420  0.85260  0.52440  Biso   1.000  H
  C112     1.0000 0.07321  0.14080  0.52781  Biso   1.000  C
  O43      1.0000 0.03626  0.08360  0.49710  Biso   1.000  O
  C113     1.0000 0.02295  0.93240  0.45728  Biso   1.000  C
  C114     1.0000 0.00556  0.73790  0.45610  Biso   1.000  C
  H60      1.0000 0.00470  0.70430  0.48250  Biso   1.000  H
  C115     1.0000 0.02358  0.98610  0.41760  Biso   1.000  C
  H61      1.0000 0.03440  0.11970  0.41830  Biso   1.000  H
  O44      1.0000 0.99882  0.75690  0.30037  Biso   1.000  O
  Cd8      1.0000 0.75447  0.99939  0.20732  Biso   1.000  Cd
  O45      1.0000 0.97408  0.39850  0.41570  Biso   1.000  O
  O46      1.0000 0.81487  0.96730  0.27493  Biso   1.000  O
  C116     1.0000 0.86334  0.23380  0.30820  Biso   1.000  C
  C117     1.0000 0.82411  0.16040  0.27240  Biso   1.000  C
  C118     1.0000 0.93703  0.35370  0.37719  Biso   1.000  C
  C119     1.0000 0.88938  0.08090  0.34560  Biso   1.000  C
  H62      1.0000 0.88210  0.93730  0.34720  Biso   1.000  H
  O47      1.0000 0.80025  0.30080  0.23785  Biso   1.000  O
  C120     1.0000 0.87511  0.44310  0.30660  Biso   1.000  C
  H63      1.0000 0.85780  0.54550  0.28190  Biso   1.000  H
  C121     1.0000 0.92644  0.14490  0.38050  Biso   1.000  C
  H64      1.0000 0.94380  0.04520  0.40600  Biso   1.000  H
  C122     1.0000 0.98961  0.59740  0.41430  Biso   1.000  C
  C123     1.0000 0.00767  0.83600  0.37630  Biso   1.000  C
  C124     1.0000 0.91151  0.50760  0.34000  Biso   1.000  C
  H65      1.0000 0.91890  0.65000  0.33790  Biso   1.000  H
  C125     1.0000 0.99114  0.64010  0.37480  Biso   1.000  C
  H66      1.0000 0.98120  0.53830  0.34800  Biso   1.000  H
  O48      1.0000 0.01410  0.09900  0.32994  Biso   1.000  O
  C126     1.0000 0.00762  0.90200  0.33400  Biso   1.000  C
  O49      1.0000 0.71124  0.29810  0.15082  Biso   1.000  O
  O50      1.0000 0.69237  0.96460  0.15585  Biso   1.000  O
  C127     1.0000 0.68544  0.16410  0.13760  Biso   1.000  C
  C128     1.0000 0.64616  0.23340  0.09860  Biso   1.000  C
  C129     1.0000 0.63704  0.44250  0.07550  Biso   1.000  C
  H67      1.0000 0.65560  0.54150  0.08390  Biso   1.000  H
  C130     1.0000 0.61823  0.08490  0.08590  Biso   1.000  C
  H68      1.0000 0.62410  0.94360  0.10130  Biso   1.000  H
  C131     1.0000 0.58205  0.14960  0.05068  Biso   1.000  C
  H69      1.0000 0.56340  0.05140  0.04210  Biso   1.000  H
  C132     1.0000 0.60033  0.50620  0.03990  Biso   1.000  C
  H70      1.0000 0.59420  0.64740  0.02440  Biso   1.000  H
  C133     1.0000 0.57321  0.35920  0.02781  Biso   1.000  C
  O51      1.0000 0.53626  0.41640  0.99710  Biso   1.000  O
  C134     1.0000 0.52295  0.56760  0.95728  Biso   1.000  C
  C135     1.0000 0.50556  0.76210  0.95610  Biso   1.000  C
  H71      1.0000 0.50470  0.79570  0.98250  Biso   1.000  H
  C136     1.0000 0.52358  0.51390  0.91760  Biso   1.000  C
  H72      1.0000 0.53440  0.38030  0.91830  Biso   1.000  H
  O52      1.0000 0.49882  0.74310  0.80037  Biso   1.000  O
  Cd9      1.0000 0.25447  0.50061  0.70732  Biso   1.000  Cd
  O53      1.0000 0.47408  0.10150  0.91570  Biso   1.000  O
  O54      1.0000 0.31487  0.53270  0.77493  Biso   1.000  O
  C137     1.0000 0.36334  0.26620  0.80820  Biso   1.000  C
  C138     1.0000 0.32411  0.33960  0.77240  Biso   1.000  C
  C139     1.0000 0.43703  0.14630  0.87719  Biso   1.000  C
  C140     1.0000 0.38938  0.41910  0.84560  Biso   1.000  C
  H73      1.0000 0.38210  0.56270  0.84720  Biso   1.000  H
  O55      1.0000 0.30025  0.19920  0.73785  Biso   1.000  O
  C141     1.0000 0.37511  0.05690  0.80660  Biso   1.000  C
  H74      1.0000 0.35780  0.95450  0.78190  Biso   1.000  H
  C142     1.0000 0.42644  0.35510  0.88050  Biso   1.000  C
  H75      1.0000 0.44380  0.45480  0.90600  Biso   1.000  H
  C143     1.0000 0.48961  0.90260  0.91430  Biso   1.000  C
  C144     1.0000 0.50767  0.66400  0.87630  Biso   1.000  C
  C145     1.0000 0.41151  0.99240  0.84000  Biso   1.000  C
  H76      1.0000 0.41890  0.85000  0.83790  Biso   1.000  H
  C146     1.0000 0.49114  0.85990  0.87480  Biso   1.000  C
  H77      1.0000 0.48120  0.96170  0.84800  Biso   1.000  H
  O56      1.0000 0.51410  0.40100  0.82994  Biso   1.000  O
  C147     1.0000 0.50762  0.59800  0.83400  Biso   1.000  C
  O57      1.0000 0.28876  0.29810  0.34918  Biso   1.000  O
  O58      1.0000 0.30763  0.96460  0.34415  Biso   1.000  O
  C148     1.0000 0.31456  0.16410  0.36240  Biso   1.000  C
  C149     1.0000 0.35384  0.23340  0.40140  Biso   1.000  C
  C150     1.0000 0.36296  0.44250  0.42450  Biso   1.000  C
  H78      1.0000 0.34440  0.54150  0.41610  Biso   1.000  H
  C151     1.0000 0.38177  0.08490  0.41410  Biso   1.000  C
  H79      1.0000 0.37590  0.94360  0.39870  Biso   1.000  H
  C152     1.0000 0.41795  0.14960  0.44932  Biso   1.000  C
  H80      1.0000 0.43660  0.05140  0.45790  Biso   1.000  H
  C153     1.0000 0.39967  0.50620  0.46010  Biso   1.000  C
  H81      1.0000 0.40580  0.64740  0.47560  Biso   1.000  H
  C154     1.0000 0.42679  0.35920  0.47219  Biso   1.000  C
  O59      1.0000 0.46374  0.41640  0.50290  Biso   1.000  O
  C155     1.0000 0.47705  0.56760  0.54272  Biso   1.000  C
  C156     1.0000 0.49444  0.76210  0.54390  Biso   1.000  C
  H82      1.0000 0.49530  0.79570  0.51750  Biso   1.000  H
  C157     1.0000 0.47642  0.51390  0.58240  Biso   1.000  C
  H83      1.0000 0.46560  0.38030  0.58170  Biso   1.000  H
  O60      1.0000 0.50118  0.74310  0.69963  Biso   1.000  O
  Cd10     1.0000 0.74553  0.50061  0.79268  Biso   1.000  Cd
  O61      1.0000 0.52592  0.10150  0.58430  Biso   1.000  O
  O62      1.0000 0.68513  0.53270  0.72507  Biso   1.000  O
  C158     1.0000 0.63666  0.26620  0.69180  Biso   1.000  C
  C159     1.0000 0.67589  0.33960  0.72760  Biso   1.000  C
  C160     1.0000 0.56297  0.14630  0.62281  Biso   1.000  C
  C161     1.0000 0.61062  0.41910  0.65440  Biso   1.000  C
  H84      1.0000 0.61790  0.56270  0.65280  Biso   1.000  H
  O63      1.0000 0.69975  0.19920  0.76215  Biso   1.000  O
  C162     1.0000 0.62489  0.05690  0.69340  Biso   1.000  C
  H85      1.0000 0.64220  0.95450  0.71810  Biso   1.000  H
  C163     1.0000 0.57356  0.35510  0.61950  Biso   1.000  C
  H86      1.0000 0.55620  0.45480  0.59400  Biso   1.000  H
  C164     1.0000 0.51039  0.90260  0.58570  Biso   1.000  C
  C165     1.0000 0.49233  0.66400  0.62370  Biso   1.000  C
  C166     1.0000 0.58849  0.99240  0.66000  Biso   1.000  C
  H87      1.0000 0.58110  0.85000  0.66210  Biso   1.000  H
  C167     1.0000 0.50886  0.85990  0.62520  Biso   1.000  C
  H88      1.0000 0.51880  0.96170  0.65200  Biso   1.000  H
  O64      1.0000 0.48590  0.40100  0.67006  Biso   1.000  O
  C168     1.0000 0.49238  0.59800  0.66600  Biso   1.000  C
  Cd11     1.0000 0.00000  0.04621  0.25000  Biso   1.000  Cd
  Cd12     1.0000 0.50000  0.45379  0.75000  Biso   1.000  Cd
