data_image0
_cell_length_a       10.1966
_cell_length_b       16.9504
_cell_length_c       26.4607
_cell_angle_alpha    90
_cell_angle_beta     90.392
_cell_angle_gamma    90

_symmetry_space_group_name_H-M    "P 1"
_symmetry_int_tables_number       1

loop_
  _symmetry_equiv_pos_as_xyz
  'x, y, z'

loop_
  _atom_site_label
  _atom_site_occupancy
  _atom_site_fract_x
  _atom_site_fract_y
  _atom_site_fract_z
  _atom_site_thermal_displace_type
  _atom_site_B_iso_or_equiv
  _atom_site_type_symbol
  Ag1      1.0000 0.66263  0.73580  0.43926  Biso   1.000  Ag
  Ag2      1.0000 0.16150  0.74646  0.62903  Biso   1.000  Ag
  C1       1.0000 0.36050  0.80600  0.54920  Biso   1.000  C
  H1       1.0000 0.32150  0.85510  0.55780  Biso   1.000  H
  C2       1.0000 0.97810  0.80230  0.33300  Biso   1.000  C
  H2       1.0000 0.00830  0.85110  0.31970  Biso   1.000  H
  C3       1.0000 0.87880  0.80100  0.36730  Biso   1.000  C
  H3       1.0000 0.84240  0.84970  0.37790  Biso   1.000  H
  C4       1.0000 0.98580  0.66730  0.33550  Biso   1.000  C
  H4       1.0000 0.02210  0.61880  0.32430  Biso   1.000  H
  C5       1.0000 0.45970  0.80650  0.51540  Biso   1.000  C
  H5       1.0000 0.48750  0.85470  0.50060  Biso   1.000  H
  C6       1.0000 0.36750  0.67220  0.55740  Biso   1.000  C
  C7       1.0000 0.88200  0.66560  0.37070  Biso   1.000  C
  C8       1.0000 0.13160  0.74000  0.74920  Biso   1.000  C
  C9       1.0000 0.06080  0.74010  0.79430  Biso   1.000  C
  C10      1.0000 0.47250  0.67230  0.52213  Biso   1.000  C
  H6       1.0000 0.51000  0.62350  0.51220  Biso   1.000  H
  N1       1.0000 0.83650  0.59710  0.38800  Biso   1.000  N
  H7       1.0000 0.77220  0.59650  0.41000  Biso   1.000  H
  H8       1.0000 0.87080  0.55240  0.37740  Biso   1.000  H
  N2       1.0000 0.31340  0.73980  0.57144  Biso   1.000  N
  N3       1.0000 0.03370  0.73310  0.31780  Biso   1.000  N
  N4       1.0000 0.06960  0.73970  0.70522  Biso   1.000  N
  N5       1.0000 0.82910  0.73280  0.38701  Biso   1.000  N
  N6       1.0000 0.24890  0.73430  0.74940  Biso   1.000  N
  N7       1.0000 0.51900  0.73820  0.50302  Biso   1.000  N
  N8       1.0000 0.32350  0.60430  0.57614  Biso   1.000  N
  H9       1.0000 0.25860  0.60430  0.59780  Biso   1.000  H
  H10      1.0000 0.35950  0.55950  0.56680  Biso   1.000  H
  Ag3      1.0000 0.33737  0.73580  0.06074  Biso   1.000  Ag
  Ag4      1.0000 0.83850  0.74646  0.87097  Biso   1.000  Ag
  C11      1.0000 0.63950  0.80600  0.95080  Biso   1.000  C
  H11      1.0000 0.67850  0.85510  0.94220  Biso   1.000  H
  C12      1.0000 0.02190  0.80230  0.16700  Biso   1.000  C
  H12      1.0000 0.99170  0.85110  0.18030  Biso   1.000  H
  C13      1.0000 0.12120  0.80100  0.13270  Biso   1.000  C
  H13      1.0000 0.15760  0.84970  0.12210  Biso   1.000  H
  C14      1.0000 0.01420  0.66730  0.16450  Biso   1.000  C
  H14      1.0000 0.97790  0.61880  0.17570  Biso   1.000  H
  C15      1.0000 0.54030  0.80650  0.98460  Biso   1.000  C
  H15      1.0000 0.51250  0.85470  0.99940  Biso   1.000  H
  C16      1.0000 0.63250  0.67220  0.94260  Biso   1.000  C
  C17      1.0000 0.11800  0.66560  0.12930  Biso   1.000  C
  C18      1.0000 0.86840  0.74000  0.75080  Biso   1.000  C
  C19      1.0000 0.93920  0.74010  0.70570  Biso   1.000  C
  C20      1.0000 0.52750  0.67230  0.97787  Biso   1.000  C
  H16      1.0000 0.49000  0.62350  0.98780  Biso   1.000  H
  N9       1.0000 0.16350  0.59710  0.11200  Biso   1.000  N
  H17      1.0000 0.22780  0.59650  0.09000  Biso   1.000  H
  H18      1.0000 0.12920  0.55240  0.12260  Biso   1.000  H
  N10      1.0000 0.68660  0.73980  0.92856  Biso   1.000  N
  N11      1.0000 0.96630  0.73310  0.18220  Biso   1.000  N
  N12      1.0000 0.93040  0.73970  0.79478  Biso   1.000  N
  N13      1.0000 0.17090  0.73280  0.11299  Biso   1.000  N
  N14      1.0000 0.75110  0.73430  0.75060  Biso   1.000  N
  N15      1.0000 0.48100  0.73820  0.99698  Biso   1.000  N
  N16      1.0000 0.67650  0.60430  0.92386  Biso   1.000  N
  H19      1.0000 0.74140  0.60430  0.90220  Biso   1.000  H
  H20      1.0000 0.64050  0.55950  0.93320  Biso   1.000  H
  Ag5      1.0000 0.16263  0.23580  0.43926  Biso   1.000  Ag
  Ag6      1.0000 0.66150  0.24646  0.62903  Biso   1.000  Ag
  C21      1.0000 0.86050  0.30600  0.54920  Biso   1.000  C
  H21      1.0000 0.82150  0.35510  0.55780  Biso   1.000  H
  C22      1.0000 0.47810  0.30230  0.33300  Biso   1.000  C
  H22      1.0000 0.50830  0.35110  0.31970  Biso   1.000  H
  C23      1.0000 0.37880  0.30100  0.36730  Biso   1.000  C
  H23      1.0000 0.34240  0.34970  0.37790  Biso   1.000  H
  C24      1.0000 0.48580  0.16730  0.33550  Biso   1.000  C
  H24      1.0000 0.52210  0.11880  0.32430  Biso   1.000  H
  C25      1.0000 0.95970  0.30650  0.51540  Biso   1.000  C
  H25      1.0000 0.98750  0.35470  0.50060  Biso   1.000  H
  C26      1.0000 0.86750  0.17220  0.55740  Biso   1.000  C
  C27      1.0000 0.38200  0.16560  0.37070  Biso   1.000  C
  C28      1.0000 0.63160  0.24000  0.74920  Biso   1.000  C
  C29      1.0000 0.56080  0.24010  0.79430  Biso   1.000  C
  C30      1.0000 0.97250  0.17230  0.52213  Biso   1.000  C
  H26      1.0000 0.01000  0.12350  0.51220  Biso   1.000  H
  N17      1.0000 0.33650  0.09710  0.38800  Biso   1.000  N
  H27      1.0000 0.27220  0.09650  0.41000  Biso   1.000  H
  H28      1.0000 0.37080  0.05240  0.37740  Biso   1.000  H
  N18      1.0000 0.81340  0.23980  0.57144  Biso   1.000  N
  N19      1.0000 0.53370  0.23310  0.31780  Biso   1.000  N
  N20      1.0000 0.56960  0.23970  0.70522  Biso   1.000  N
  N21      1.0000 0.32910  0.23280  0.38701  Biso   1.000  N
  N22      1.0000 0.74890  0.23430  0.74940  Biso   1.000  N
  N23      1.0000 0.01900  0.23820  0.50302  Biso   1.000  N
  N24      1.0000 0.82350  0.10430  0.57614  Biso   1.000  N
  H29      1.0000 0.75860  0.10430  0.59780  Biso   1.000  H
  H30      1.0000 0.85950  0.05950  0.56680  Biso   1.000  H
  Ag7      1.0000 0.83737  0.23580  0.06074  Biso   1.000  Ag
  Ag8      1.0000 0.33850  0.24646  0.87097  Biso   1.000  Ag
  C31      1.0000 0.13950  0.30600  0.95080  Biso   1.000  C
  H31      1.0000 0.17850  0.35510  0.94220  Biso   1.000  H
  C32      1.0000 0.52190  0.30230  0.16700  Biso   1.000  C
  H32      1.0000 0.49170  0.35110  0.18030  Biso   1.000  H
  C33      1.0000 0.62120  0.30100  0.13270  Biso   1.000  C
  H33      1.0000 0.65760  0.34970  0.12210  Biso   1.000  H
  C34      1.0000 0.51420  0.16730  0.16450  Biso   1.000  C
  H34      1.0000 0.47790  0.11880  0.17570  Biso   1.000  H
  C35      1.0000 0.04030  0.30650  0.98460  Biso   1.000  C
  H35      1.0000 0.01250  0.35470  0.99940  Biso   1.000  H
  C36      1.0000 0.13250  0.17220  0.94260  Biso   1.000  C
  C37      1.0000 0.61800  0.16560  0.12930  Biso   1.000  C
  C38      1.0000 0.36840  0.24000  0.75080  Biso   1.000  C
  C39      1.0000 0.43920  0.24010  0.70570  Biso   1.000  C
  C40      1.0000 0.02750  0.17230  0.97787  Biso   1.000  C
  H36      1.0000 0.99000  0.12350  0.98780  Biso   1.000  H
  N25      1.0000 0.66350  0.09710  0.11200  Biso   1.000  N
  H37      1.0000 0.72780  0.09650  0.09000  Biso   1.000  H
  H38      1.0000 0.62920  0.05240  0.12260  Biso   1.000  H
  N26      1.0000 0.18660  0.23980  0.92856  Biso   1.000  N
  N27      1.0000 0.46630  0.23310  0.18220  Biso   1.000  N
  N28      1.0000 0.43040  0.23970  0.79478  Biso   1.000  N
  N29      1.0000 0.67090  0.23280  0.11299  Biso   1.000  N
  N30      1.0000 0.25110  0.23430  0.75060  Biso   1.000  N
  N31      1.0000 0.98100  0.23820  0.99698  Biso   1.000  N
  N32      1.0000 0.17650  0.10430  0.92386  Biso   1.000  N
  H39      1.0000 0.24140  0.10430  0.90220  Biso   1.000  H
  H40      1.0000 0.14050  0.05950  0.93320  Biso   1.000  H
  Ag9      1.0000 0.33737  0.26420  0.56074  Biso   1.000  Ag
  Ag10     1.0000 0.83850  0.25354  0.37097  Biso   1.000  Ag
  C41      1.0000 0.63950  0.19400  0.45080  Biso   1.000  C
  H41      1.0000 0.67850  0.14490  0.44220  Biso   1.000  H
  C42      1.0000 0.02190  0.19770  0.66700  Biso   1.000  C
  H42      1.0000 0.99170  0.14890  0.68030  Biso   1.000  H
  C43      1.0000 0.12120  0.19900  0.63270  Biso   1.000  C
  H43      1.0000 0.15760  0.15030  0.62210  Biso   1.000  H
  C44      1.0000 0.01420  0.33270  0.66450  Biso   1.000  C
  H44      1.0000 0.97790  0.38120  0.67570  Biso   1.000  H
  C45      1.0000 0.54030  0.19350  0.48460  Biso   1.000  C
  H45      1.0000 0.51250  0.14530  0.49940  Biso   1.000  H
  C46      1.0000 0.63250  0.32780  0.44260  Biso   1.000  C
  C47      1.0000 0.11800  0.33440  0.62930  Biso   1.000  C
  C48      1.0000 0.86840  0.26000  0.25080  Biso   1.000  C
  C49      1.0000 0.93920  0.25990  0.20570  Biso   1.000  C
  C50      1.0000 0.52750  0.32770  0.47787  Biso   1.000  C
  H46      1.0000 0.49000  0.37650  0.48780  Biso   1.000  H
  N33      1.0000 0.16350  0.40290  0.61200  Biso   1.000  N
  H47      1.0000 0.22780  0.40350  0.59000  Biso   1.000  H
  H48      1.0000 0.12920  0.44760  0.62260  Biso   1.000  H
  N34      1.0000 0.68660  0.26020  0.42856  Biso   1.000  N
  N35      1.0000 0.96630  0.26690  0.68220  Biso   1.000  N
  N36      1.0000 0.93040  0.26030  0.29478  Biso   1.000  N
  N37      1.0000 0.17090  0.26720  0.61299  Biso   1.000  N
  N38      1.0000 0.75110  0.26570  0.25060  Biso   1.000  N
  N39      1.0000 0.48100  0.26180  0.49698  Biso   1.000  N
  N40      1.0000 0.67650  0.39570  0.42386  Biso   1.000  N
  H49      1.0000 0.74140  0.39570  0.40220  Biso   1.000  H
  H50      1.0000 0.64050  0.44050  0.43320  Biso   1.000  H
  Ag11     1.0000 0.66263  0.26420  0.93926  Biso   1.000  Ag
  Ag12     1.0000 0.16150  0.25354  0.12903  Biso   1.000  Ag
  C51      1.0000 0.36050  0.19400  0.04920  Biso   1.000  C
  H51      1.0000 0.32150  0.14490  0.05780  Biso   1.000  H
  C52      1.0000 0.97810  0.19770  0.83300  Biso   1.000  C
  H52      1.0000 0.00830  0.14890  0.81970  Biso   1.000  H
  C53      1.0000 0.87880  0.19900  0.86730  Biso   1.000  C
  H53      1.0000 0.84240  0.15030  0.87790  Biso   1.000  H
  C54      1.0000 0.98580  0.33270  0.83550  Biso   1.000  C
  H54      1.0000 0.02210  0.38120  0.82430  Biso   1.000  H
  C55      1.0000 0.45970  0.19350  0.01540  Biso   1.000  C
  H55      1.0000 0.48750  0.14530  0.00060  Biso   1.000  H
  C56      1.0000 0.36750  0.32780  0.05740  Biso   1.000  C
  C57      1.0000 0.88200  0.33440  0.87070  Biso   1.000  C
  C58      1.0000 0.13160  0.26000  0.24920  Biso   1.000  C
  C59      1.0000 0.06080  0.25990  0.29430  Biso   1.000  C
  C60      1.0000 0.47250  0.32770  0.02213  Biso   1.000  C
  H56      1.0000 0.51000  0.37650  0.01220  Biso   1.000  H
  N41      1.0000 0.83650  0.40290  0.88800  Biso   1.000  N
  H57      1.0000 0.77220  0.40350  0.91000  Biso   1.000  H
  H58      1.0000 0.87080  0.44760  0.87740  Biso   1.000  H
  N42      1.0000 0.31340  0.26020  0.07144  Biso   1.000  N
  N43      1.0000 0.03370  0.26690  0.81780  Biso   1.000  N
  N44      1.0000 0.06960  0.26030  0.20522  Biso   1.000  N
  N45      1.0000 0.82910  0.26720  0.88701  Biso   1.000  N
  N46      1.0000 0.24890  0.26570  0.24940  Biso   1.000  N
  N47      1.0000 0.51900  0.26180  0.00302  Biso   1.000  N
  N48      1.0000 0.32350  0.39570  0.07614  Biso   1.000  N
  H59      1.0000 0.25860  0.39570  0.09780  Biso   1.000  H
  H60      1.0000 0.35950  0.44050  0.06680  Biso   1.000  H
  Ag13     1.0000 0.83737  0.76420  0.56074  Biso   1.000  Ag
  Ag14     1.0000 0.33850  0.75354  0.37097  Biso   1.000  Ag
  C61      1.0000 0.13950  0.69400  0.45080  Biso   1.000  C
  H61      1.0000 0.17850  0.64490  0.44220  Biso   1.000  H
  C62      1.0000 0.52190  0.69770  0.66700  Biso   1.000  C
  H62      1.0000 0.49170  0.64890  0.68030  Biso   1.000  H
  C63      1.0000 0.62120  0.69900  0.63270  Biso   1.000  C
  H63      1.0000 0.65760  0.65030  0.62210  Biso   1.000  H
  C64      1.0000 0.51420  0.83270  0.66450  Biso   1.000  C
  H64      1.0000 0.47790  0.88120  0.67570  Biso   1.000  H
  C65      1.0000 0.04030  0.69350  0.48460  Biso   1.000  C
  H65      1.0000 0.01250  0.64530  0.49940  Biso   1.000  H
  C66      1.0000 0.13250  0.82780  0.44260  Biso   1.000  C
  C67      1.0000 0.61800  0.83440  0.62930  Biso   1.000  C
  C68      1.0000 0.36840  0.76000  0.25080  Biso   1.000  C
  C69      1.0000 0.43920  0.75990  0.20570  Biso   1.000  C
  C70      1.0000 0.02750  0.82770  0.47787  Biso   1.000  C
  H66      1.0000 0.99000  0.87650  0.48780  Biso   1.000  H
  N49      1.0000 0.66350  0.90290  0.61200  Biso   1.000  N
  H67      1.0000 0.72780  0.90350  0.59000  Biso   1.000  H
  H68      1.0000 0.62920  0.94760  0.62260  Biso   1.000  H
  N50      1.0000 0.18660  0.76020  0.42856  Biso   1.000  N
  N51      1.0000 0.46630  0.76690  0.68220  Biso   1.000  N
  N52      1.0000 0.43040  0.76030  0.29478  Biso   1.000  N
  N53      1.0000 0.67090  0.76720  0.61299  Biso   1.000  N
  N54      1.0000 0.25110  0.76570  0.25060  Biso   1.000  N
  N55      1.0000 0.98100  0.76180  0.49698  Biso   1.000  N
  N56      1.0000 0.17650  0.89570  0.42386  Biso   1.000  N
  H69      1.0000 0.24140  0.89570  0.40220  Biso   1.000  H
  H70      1.0000 0.14050  0.94050  0.43320  Biso   1.000  H
  Ag15     1.0000 0.16263  0.76420  0.93926  Biso   1.000  Ag
  Ag16     1.0000 0.66150  0.75354  0.12903  Biso   1.000  Ag
  C71      1.0000 0.86050  0.69400  0.04920  Biso   1.000  C
  H71      1.0000 0.82150  0.64490  0.05780  Biso   1.000  H
  C72      1.0000 0.47810  0.69770  0.83300  Biso   1.000  C
  H72      1.0000 0.50830  0.64890  0.81970  Biso   1.000  H
  C73      1.0000 0.37880  0.69900  0.86730  Biso   1.000  C
  H73      1.0000 0.34240  0.65030  0.87790  Biso   1.000  H
  C74      1.0000 0.48580  0.83270  0.83550  Biso   1.000  C
  H74      1.0000 0.52210  0.88120  0.82430  Biso   1.000  H
  C75      1.0000 0.95970  0.69350  0.01540  Biso   1.000  C
  H75      1.0000 0.98750  0.64530  0.00060  Biso   1.000  H
  C76      1.0000 0.86750  0.82780  0.05740  Biso   1.000  C
  C77      1.0000 0.38200  0.83440  0.87070  Biso   1.000  C
  C78      1.0000 0.63160  0.76000  0.24920  Biso   1.000  C
  C79      1.0000 0.56080  0.75990  0.29430  Biso   1.000  C
  C80      1.0000 0.97250  0.82770  0.02213  Biso   1.000  C
  H76      1.0000 0.01000  0.87650  0.01220  Biso   1.000  H
  N57      1.0000 0.33650  0.90290  0.88800  Biso   1.000  N
  H77      1.0000 0.27220  0.90350  0.91000  Biso   1.000  H
  H78      1.0000 0.37080  0.94760  0.87740  Biso   1.000  H
  N58      1.0000 0.81340  0.76020  0.07144  Biso   1.000  N
  N59      1.0000 0.53370  0.76690  0.81780  Biso   1.000  N
  N60      1.0000 0.56960  0.76030  0.20522  Biso   1.000  N
  N61      1.0000 0.32910  0.76720  0.88701  Biso   1.000  N
  N62      1.0000 0.74890  0.76570  0.24940  Biso   1.000  N
  N63      1.0000 0.01900  0.76180  0.00302  Biso   1.000  N
  N64      1.0000 0.82350  0.89570  0.07614  Biso   1.000  N
  H79      1.0000 0.75860  0.89570  0.09780  Biso   1.000  H
  H80      1.0000 0.85950  0.94050  0.06680  Biso   1.000  H
