data_image0
_cell_length_a       20.949
_cell_length_b       17.47
_cell_length_c       20.345
_cell_angle_alpha    90
_cell_angle_beta     90
_cell_angle_gamma    90

_symmetry_space_group_name_H-M    "P 1"
_symmetry_int_tables_number       1

loop_
  _symmetry_equiv_pos_as_xyz
  'x, y, z'

loop_
  _atom_site_label
  _atom_site_occupancy
  _atom_site_fract_x
  _atom_site_fract_y
  _atom_site_fract_z
  _atom_site_thermal_displace_type
  _atom_site_B_iso_or_equiv
  _atom_site_type_symbol
  Sn1      1.0000 0.58346  0.34504  0.16440  Biso   1.000  Sn
  O1       1.0000 0.61120  0.25200  0.24190  Biso   1.000  O
  O2       1.0000 0.66210  0.16710  0.30180  Biso   1.000  O
  O3       1.0000 0.55660  0.42350  0.08450  Biso   1.000  O
  O4       1.0000 0.49690  0.50120  0.14320  Biso   1.000  O
  C1       1.0000 0.65970  0.22890  0.26890  Biso   1.000  C
  C2       1.0000 0.72120  0.27510  0.26760  Biso   1.000  C
  C3       1.0000 0.52020  0.48110  0.09040  Biso   1.000  C
  C4       1.0000 0.50800  0.52520  0.02590  Biso   1.000  C
  C5       1.0000 0.62150  0.43380  0.22830  Biso   1.000  C
  C6       1.0000 0.67570  0.47920  0.18310  Biso   1.000  C
  C7       1.0000 0.69780  0.53300  0.22420  Biso   1.000  C
  C8       1.0000 0.74620  0.58100  0.18800  Biso   1.000  C
  C9       1.0000 0.48800  0.30810  0.18690  Biso   1.000  C
  C10      1.0000 0.45090  0.28280  0.12540  Biso   1.000  C
  C11      1.0000 0.38560  0.25700  0.15200  Biso   1.000  C
  C12      1.0000 0.35200  0.23500  0.10500  Biso   1.000  C
  C13      1.0000 0.64540  0.28960  0.09540  Biso   1.000  C
  C14      1.0000 0.61240  0.24060  0.04950  Biso   1.000  C
  C15      1.0000 0.66520  0.19700  0.00990  Biso   1.000  C
  C16      1.0000 0.63550  0.17100  0.95980  Biso   1.000  C
  Sn2      1.0000 0.91654  0.15496  0.16440  Biso   1.000  Sn
  O5       1.0000 0.88880  0.24800  0.24190  Biso   1.000  O
  O6       1.0000 0.83790  0.33290  0.30180  Biso   1.000  O
  O7       1.0000 0.94340  0.07650  0.08450  Biso   1.000  O
  O8       1.0000 0.00310  0.99880  0.14320  Biso   1.000  O
  C17      1.0000 0.84030  0.27110  0.26890  Biso   1.000  C
  C18      1.0000 0.77880  0.22490  0.26760  Biso   1.000  C
  C19      1.0000 0.97980  0.01890  0.09040  Biso   1.000  C
  C20      1.0000 0.99200  0.97480  0.02590  Biso   1.000  C
  C21      1.0000 0.87850  0.06620  0.22830  Biso   1.000  C
  C22      1.0000 0.82430  0.02080  0.18310  Biso   1.000  C
  C23      1.0000 0.80220  0.96700  0.22420  Biso   1.000  C
  C24      1.0000 0.75380  0.91900  0.18800  Biso   1.000  C
  C25      1.0000 0.01200  0.19190  0.18690  Biso   1.000  C
  C26      1.0000 0.04910  0.21720  0.12540  Biso   1.000  C
  C27      1.0000 0.11440  0.24300  0.15200  Biso   1.000  C
  C28      1.0000 0.14800  0.26500  0.10500  Biso   1.000  C
  C29      1.0000 0.85460  0.21040  0.09540  Biso   1.000  C
  C30      1.0000 0.88760  0.25940  0.04950  Biso   1.000  C
  C31      1.0000 0.83480  0.30300  0.00990  Biso   1.000  C
  C32      1.0000 0.86450  0.32900  0.95980  Biso   1.000  C
  Sn3      1.0000 0.41654  0.65496  0.83560  Biso   1.000  Sn
  O9       1.0000 0.38880  0.74800  0.75810  Biso   1.000  O
  O10      1.0000 0.33790  0.83290  0.69820  Biso   1.000  O
  O11      1.0000 0.44340  0.57650  0.91550  Biso   1.000  O
  O12      1.0000 0.50310  0.49880  0.85680  Biso   1.000  O
  C33      1.0000 0.34030  0.77110  0.73110  Biso   1.000  C
  C34      1.0000 0.27880  0.72490  0.73240  Biso   1.000  C
  C35      1.0000 0.47980  0.51890  0.90960  Biso   1.000  C
  C36      1.0000 0.49200  0.47480  0.97410  Biso   1.000  C
  C37      1.0000 0.37850  0.56620  0.77170  Biso   1.000  C
  C38      1.0000 0.32430  0.52080  0.81690  Biso   1.000  C
  C39      1.0000 0.30220  0.46700  0.77580  Biso   1.000  C
  C40      1.0000 0.25380  0.41900  0.81200  Biso   1.000  C
  C41      1.0000 0.51200  0.69190  0.81310  Biso   1.000  C
  C42      1.0000 0.54910  0.71720  0.87460  Biso   1.000  C
  C43      1.0000 0.61440  0.74300  0.84800  Biso   1.000  C
  C44      1.0000 0.64800  0.76500  0.89500  Biso   1.000  C
  C45      1.0000 0.35460  0.71040  0.90460  Biso   1.000  C
  C46      1.0000 0.38760  0.75940  0.95050  Biso   1.000  C
  C47      1.0000 0.33480  0.80300  0.99010  Biso   1.000  C
  C48      1.0000 0.36450  0.82900  0.04020  Biso   1.000  C
  Sn4      1.0000 0.08346  0.84504  0.83560  Biso   1.000  Sn
  O13      1.0000 0.11120  0.75200  0.75810  Biso   1.000  O
  O14      1.0000 0.16210  0.66710  0.69820  Biso   1.000  O
  O15      1.0000 0.05660  0.92350  0.91550  Biso   1.000  O
  O16      1.0000 0.99690  0.00120  0.85680  Biso   1.000  O
  C49      1.0000 0.15970  0.72890  0.73110  Biso   1.000  C
  C50      1.0000 0.22120  0.77510  0.73240  Biso   1.000  C
  C51      1.0000 0.02020  0.98110  0.90960  Biso   1.000  C
  C52      1.0000 0.00800  0.02520  0.97410  Biso   1.000  C
  C53      1.0000 0.12150  0.93380  0.77170  Biso   1.000  C
  C54      1.0000 0.17570  0.97920  0.81690  Biso   1.000  C
  C55      1.0000 0.19780  0.03300  0.77580  Biso   1.000  C
  C56      1.0000 0.24620  0.08100  0.81200  Biso   1.000  C
  C57      1.0000 0.98800  0.80810  0.81310  Biso   1.000  C
  C58      1.0000 0.95090  0.78280  0.87460  Biso   1.000  C
  C59      1.0000 0.88560  0.75700  0.84800  Biso   1.000  C
  C60      1.0000 0.85200  0.73500  0.89500  Biso   1.000  C
  C61      1.0000 0.14540  0.78960  0.90460  Biso   1.000  C
  C62      1.0000 0.11240  0.74060  0.95050  Biso   1.000  C
  C63      1.0000 0.16520  0.69700  0.99010  Biso   1.000  C
  C64      1.0000 0.13550  0.67100  0.04020  Biso   1.000  C
  Sn5      1.0000 0.41654  0.84504  0.33560  Biso   1.000  Sn
  O17      1.0000 0.38880  0.75200  0.25810  Biso   1.000  O
  O18      1.0000 0.33790  0.66710  0.19820  Biso   1.000  O
  O19      1.0000 0.44340  0.92350  0.41550  Biso   1.000  O
  O20      1.0000 0.50310  0.00120  0.35680  Biso   1.000  O
  C65      1.0000 0.34030  0.72890  0.23110  Biso   1.000  C
  C66      1.0000 0.27880  0.77510  0.23240  Biso   1.000  C
  C67      1.0000 0.47980  0.98110  0.40960  Biso   1.000  C
  C68      1.0000 0.49200  0.02520  0.47410  Biso   1.000  C
  C69      1.0000 0.37850  0.93380  0.27170  Biso   1.000  C
  C70      1.0000 0.32430  0.97920  0.31690  Biso   1.000  C
  C71      1.0000 0.30220  0.03300  0.27580  Biso   1.000  C
  C72      1.0000 0.25380  0.08100  0.31200  Biso   1.000  C
  C73      1.0000 0.51200  0.80810  0.31310  Biso   1.000  C
  C74      1.0000 0.54910  0.78280  0.37460  Biso   1.000  C
  C75      1.0000 0.61440  0.75700  0.34800  Biso   1.000  C
  C76      1.0000 0.64800  0.73500  0.39500  Biso   1.000  C
  C77      1.0000 0.35460  0.78960  0.40460  Biso   1.000  C
  C78      1.0000 0.38760  0.74060  0.45050  Biso   1.000  C
  C79      1.0000 0.33480  0.69700  0.49010  Biso   1.000  C
  C80      1.0000 0.36450  0.67100  0.54020  Biso   1.000  C
  Sn6      1.0000 0.08346  0.65496  0.33560  Biso   1.000  Sn
  O21      1.0000 0.11120  0.74800  0.25810  Biso   1.000  O
  O22      1.0000 0.16210  0.83290  0.19820  Biso   1.000  O
  O23      1.0000 0.05660  0.57650  0.41550  Biso   1.000  O
  O24      1.0000 0.99690  0.49880  0.35680  Biso   1.000  O
  C81      1.0000 0.15970  0.77110  0.23110  Biso   1.000  C
  C82      1.0000 0.22120  0.72490  0.23240  Biso   1.000  C
  C83      1.0000 0.02020  0.51890  0.40960  Biso   1.000  C
  C84      1.0000 0.00800  0.47480  0.47410  Biso   1.000  C
  C85      1.0000 0.12150  0.56620  0.27170  Biso   1.000  C
  C86      1.0000 0.17570  0.52080  0.31690  Biso   1.000  C
  C87      1.0000 0.19780  0.46700  0.27580  Biso   1.000  C
  C88      1.0000 0.24620  0.41900  0.31200  Biso   1.000  C
  C89      1.0000 0.98800  0.69190  0.31310  Biso   1.000  C
  C90      1.0000 0.95090  0.71720  0.37460  Biso   1.000  C
  C91      1.0000 0.88560  0.74300  0.34800  Biso   1.000  C
  C92      1.0000 0.85200  0.76500  0.39500  Biso   1.000  C
  C93      1.0000 0.14540  0.71040  0.40460  Biso   1.000  C
  C94      1.0000 0.11240  0.75940  0.45050  Biso   1.000  C
  C95      1.0000 0.16520  0.80300  0.49010  Biso   1.000  C
  C96      1.0000 0.13550  0.82900  0.54020  Biso   1.000  C
  Sn7      1.0000 0.58346  0.15496  0.66440  Biso   1.000  Sn
  O25      1.0000 0.61120  0.24800  0.74190  Biso   1.000  O
  O26      1.0000 0.66210  0.33290  0.80180  Biso   1.000  O
  O27      1.0000 0.55660  0.07650  0.58450  Biso   1.000  O
  O28      1.0000 0.49690  0.99880  0.64320  Biso   1.000  O
  C97      1.0000 0.65970  0.27110  0.76890  Biso   1.000  C
  C98      1.0000 0.72120  0.22490  0.76760  Biso   1.000  C
  C99      1.0000 0.52020  0.01890  0.59040  Biso   1.000  C
  C100     1.0000 0.50800  0.97480  0.52590  Biso   1.000  C
  C101     1.0000 0.62150  0.06620  0.72830  Biso   1.000  C
  C102     1.0000 0.67570  0.02080  0.68310  Biso   1.000  C
  C103     1.0000 0.69780  0.96700  0.72420  Biso   1.000  C
  C104     1.0000 0.74620  0.91900  0.68800  Biso   1.000  C
  C105     1.0000 0.48800  0.19190  0.68690  Biso   1.000  C
  C106     1.0000 0.45090  0.21720  0.62540  Biso   1.000  C
  C107     1.0000 0.38560  0.24300  0.65200  Biso   1.000  C
  C108     1.0000 0.35200  0.26500  0.60500  Biso   1.000  C
  C109     1.0000 0.64540  0.21040  0.59540  Biso   1.000  C
  C110     1.0000 0.61240  0.25940  0.54950  Biso   1.000  C
  C111     1.0000 0.66520  0.30300  0.50990  Biso   1.000  C
  C112     1.0000 0.63550  0.32900  0.45980  Biso   1.000  C
  Sn8      1.0000 0.91654  0.34504  0.66440  Biso   1.000  Sn
  O29      1.0000 0.88880  0.25200  0.74190  Biso   1.000  O
  O30      1.0000 0.83790  0.16710  0.80180  Biso   1.000  O
  O31      1.0000 0.94340  0.42350  0.58450  Biso   1.000  O
  O32      1.0000 0.00310  0.50120  0.64320  Biso   1.000  O
  C113     1.0000 0.84030  0.22890  0.76890  Biso   1.000  C
  C114     1.0000 0.77880  0.27510  0.76760  Biso   1.000  C
  C115     1.0000 0.97980  0.48110  0.59040  Biso   1.000  C
  C116     1.0000 0.99200  0.52520  0.52590  Biso   1.000  C
  C117     1.0000 0.87850  0.43380  0.72830  Biso   1.000  C
  C118     1.0000 0.82430  0.47920  0.68310  Biso   1.000  C
  C119     1.0000 0.80220  0.53300  0.72420  Biso   1.000  C
  C120     1.0000 0.75380  0.58100  0.68800  Biso   1.000  C
  C121     1.0000 0.01200  0.30810  0.68690  Biso   1.000  C
  C122     1.0000 0.04910  0.28280  0.62540  Biso   1.000  C
  C123     1.0000 0.11440  0.25700  0.65200  Biso   1.000  C
  C124     1.0000 0.14800  0.23500  0.60500  Biso   1.000  C
  C125     1.0000 0.85460  0.28960  0.59540  Biso   1.000  C
  C126     1.0000 0.88760  0.24060  0.54950  Biso   1.000  C
  C127     1.0000 0.83480  0.19700  0.50990  Biso   1.000  C
  C128     1.0000 0.86450  0.17100  0.45980  Biso   1.000  C
