data_image0
_cell_length_a       10.4451
_cell_length_b       12.4548
_cell_length_c       28.6487
_cell_angle_alpha    90
_cell_angle_beta     90
_cell_angle_gamma    90

_symmetry_space_group_name_H-M    "P 1"
_symmetry_int_tables_number       1

loop_
  _symmetry_equiv_pos_as_xyz
  'x, y, z'

loop_
  _atom_site_label
  _atom_site_occupancy
  _atom_site_fract_x
  _atom_site_fract_y
  _atom_site_fract_z
  _atom_site_thermal_displace_type
  _atom_site_B_iso_or_equiv
  _atom_site_type_symbol
  Cd1      1.0000 0.76681  0.15171  0.93909  Biso   1.000  Cd
  C1       1.0000 0.04390  0.08330  0.98280  Biso   1.000  C
  H1       1.0000 0.06080  0.15540  0.97690  Biso   1.000  H
  C2       1.0000 0.91130  0.93970  0.97830  Biso   1.000  C
  H2       1.0000 0.83430  0.90910  0.96900  Biso   1.000  H
  C3       1.0000 0.99840  0.87500  0.00070  Biso   1.000  C
  H3       1.0000 0.97740  0.80380  0.00700  Biso   1.000  H
  C4       1.0000 0.13520  0.02280  0.00490  Biso   1.000  C
  H4       1.0000 0.21160  0.05510  0.01400  Biso   1.000  H
  C5       1.0000 0.11660  0.91430  0.01410  Biso   1.000  C
  C6       1.0000 0.21000  0.84910  0.03820  Biso   1.000  C
  H5       1.0000 0.28170  0.89460  0.04670  Biso   1.000  H
  H6       1.0000 0.24170  0.79540  0.01660  Biso   1.000  H
  C7       1.0000 0.16440  0.79350  0.08090  Biso   1.000  C
  H7       1.0000 0.09730  0.74350  0.07210  Biso   1.000  H
  H8       1.0000 0.23460  0.75200  0.09370  Biso   1.000  H
  C8       1.0000 0.11500  0.86470  0.11730  Biso   1.000  C
  H9       1.0000 0.05880  0.91670  0.10270  Biso   1.000  H
  H10      1.0000 0.18670  0.90400  0.13040  Biso   1.000  H
  C9       1.0000 0.04280  0.81270  0.15720  Biso   1.000  C
  C10      1.0000 0.93390  0.75190  0.14880  Biso   1.000  C
  H11      1.0000 0.90510  0.74370  0.11830  Biso   1.000  H
  C11      1.0000 0.86710  0.70310  0.18470  Biso   1.000  C
  H12      1.0000 0.79630  0.66070  0.17770  Biso   1.000  H
  C12      1.0000 0.06980  0.82270  0.20290  Biso   1.000  C
  H13      1.0000 0.14160  0.86120  0.21230  Biso   1.000  H
  C13      1.0000 0.99400  0.77780  0.23480  Biso   1.000  C
  H14      1.0000 0.01180  0.79490  0.26570  Biso   1.000  H
  C14      1.0000 0.13740  0.55240  0.65710  Biso   1.000  C
  H15      1.0000 0.05890  0.57320  0.64470  Biso   1.000  H
  C15      1.0000 0.14440  0.51910  0.70450  Biso   1.000  C
  H16      1.0000 0.07210  0.52700  0.72310  Biso   1.000  H
  C16      1.0000 0.34310  0.51650  0.64960  Biso   1.000  C
  H17      1.0000 0.41550  0.51600  0.63080  Biso   1.000  H
  C17      1.0000 0.35650  0.47730  0.69450  Biso   1.000  C
  H18      1.0000 0.43400  0.45120  0.70570  Biso   1.000  H
  C18      1.0000 0.24310  0.47960  0.72250  Biso   1.000  C
  C19      1.0000 0.26500  0.42220  0.77100  Biso   1.000  C
  H19      1.0000 0.19040  0.38010  0.77930  Biso   1.000  H
  H20      1.0000 0.33830  0.37440  0.76910  Biso   1.000  H
  C20      1.0000 0.28900  0.50770  0.80740  Biso   1.000  C
  H21      1.0000 0.37000  0.54280  0.80160  Biso   1.000  H
  H22      1.0000 0.22160  0.56140  0.80610  Biso   1.000  H
  C21      1.0000 0.29010  0.45520  0.85460  Biso   1.000  C
  H23      1.0000 0.21200  0.41340  0.85700  Biso   1.000  H
  H24      1.0000 0.28370  0.51230  0.87750  Biso   1.000  H
  C22      1.0000 0.40190  0.38080  0.87040  Biso   1.000  C
  C23      1.0000 0.52000  0.37250  0.84940  Biso   1.000  C
  H25      1.0000 0.53640  0.41080  0.82220  Biso   1.000  H
  C24      1.0000 0.61020  0.31100  0.86740  Biso   1.000  C
  H26      1.0000 0.68820  0.30790  0.85180  Biso   1.000  H
  C25      1.0000 0.38700  0.32180  0.90980  Biso   1.000  C
  H27      1.0000 0.30930  0.32400  0.92560  Biso   1.000  H
  C26      1.0000 0.48640  0.25740  0.92700  Biso   1.000  C
  H28      1.0000 0.47240  0.21700  0.95390  Biso   1.000  H
  N1       1.0000 0.92940  0.04140  0.96920  Biso   1.000  N
  N2       1.0000 0.90220  0.71570  0.22840  Biso   1.000  N
  N3       1.0000 0.59830  0.25220  0.90660  Biso   1.000  N
  N4       1.0000 0.23650  0.55440  0.63120  Biso   1.000  N
  Cd2      1.0000 0.23319  0.65171  0.56091  Biso   1.000  Cd
  C27      1.0000 0.95610  0.58330  0.51720  Biso   1.000  C
  H29      1.0000 0.93920  0.65540  0.52310  Biso   1.000  H
  C28      1.0000 0.08870  0.43970  0.52170  Biso   1.000  C
  H30      1.0000 0.16570  0.40910  0.53100  Biso   1.000  H
  C29      1.0000 0.00160  0.37500  0.49930  Biso   1.000  C
  H31      1.0000 0.02260  0.30380  0.49300  Biso   1.000  H
  C30      1.0000 0.86480  0.52280  0.49510  Biso   1.000  C
  H32      1.0000 0.78840  0.55510  0.48600  Biso   1.000  H
  C31      1.0000 0.88340  0.41430  0.48590  Biso   1.000  C
  C32      1.0000 0.79000  0.34910  0.46180  Biso   1.000  C
  H33      1.0000 0.71830  0.39460  0.45330  Biso   1.000  H
  H34      1.0000 0.75830  0.29540  0.48340  Biso   1.000  H
  C33      1.0000 0.83560  0.29350  0.41910  Biso   1.000  C
  H35      1.0000 0.90270  0.24350  0.42790  Biso   1.000  H
  H36      1.0000 0.76540  0.25200  0.40630  Biso   1.000  H
  C34      1.0000 0.88500  0.36470  0.38270  Biso   1.000  C
  H37      1.0000 0.94120  0.41670  0.39730  Biso   1.000  H
  H38      1.0000 0.81330  0.40400  0.36960  Biso   1.000  H
  C35      1.0000 0.95720  0.31270  0.34280  Biso   1.000  C
  C36      1.0000 0.06610  0.25190  0.35120  Biso   1.000  C
  H39      1.0000 0.09490  0.24370  0.38170  Biso   1.000  H
  C37      1.0000 0.13290  0.20310  0.31530  Biso   1.000  C
  H40      1.0000 0.20370  0.16070  0.32230  Biso   1.000  H
  C38      1.0000 0.93020  0.32270  0.29710  Biso   1.000  C
  H41      1.0000 0.85840  0.36120  0.28770  Biso   1.000  H
  C39      1.0000 0.00600  0.27780  0.26520  Biso   1.000  C
  H42      1.0000 0.98820  0.29490  0.23430  Biso   1.000  H
  C40      1.0000 0.86260  0.05240  0.84290  Biso   1.000  C
  H43      1.0000 0.94110  0.07320  0.85530  Biso   1.000  H
  C41      1.0000 0.85560  0.01910  0.79550  Biso   1.000  C
  H44      1.0000 0.92790  0.02700  0.77690  Biso   1.000  H
  C42      1.0000 0.65690  0.01650  0.85040  Biso   1.000  C
  H45      1.0000 0.58450  0.01600  0.86920  Biso   1.000  H
  C43      1.0000 0.64350  0.97730  0.80550  Biso   1.000  C
  H46      1.0000 0.56600  0.95120  0.79430  Biso   1.000  H
  C44      1.0000 0.75690  0.97960  0.77750  Biso   1.000  C
  C45      1.0000 0.73500  0.92220  0.72900  Biso   1.000  C
  H47      1.0000 0.80960  0.88010  0.72070  Biso   1.000  H
  H48      1.0000 0.66170  0.87440  0.73090  Biso   1.000  H
  C46      1.0000 0.71100  0.00770  0.69260  Biso   1.000  C
  H49      1.0000 0.63000  0.04280  0.69840  Biso   1.000  H
  H50      1.0000 0.77840  0.06140  0.69390  Biso   1.000  H
  C47      1.0000 0.70990  0.95520  0.64540  Biso   1.000  C
  H51      1.0000 0.78800  0.91340  0.64300  Biso   1.000  H
  H52      1.0000 0.71630  0.01230  0.62250  Biso   1.000  H
  C48      1.0000 0.59810  0.88080  0.62960  Biso   1.000  C
  C49      1.0000 0.48000  0.87250  0.65060  Biso   1.000  C
  H53      1.0000 0.46360  0.91080  0.67780  Biso   1.000  H
  C50      1.0000 0.38980  0.81100  0.63260  Biso   1.000  C
  H54      1.0000 0.31180  0.80790  0.64820  Biso   1.000  H
  C51      1.0000 0.61300  0.82180  0.59020  Biso   1.000  C
  H55      1.0000 0.69070  0.82400  0.57440  Biso   1.000  H
  C52      1.0000 0.51360  0.75740  0.57300  Biso   1.000  C
  H56      1.0000 0.52760  0.71700  0.54610  Biso   1.000  H
  N5       1.0000 0.07060  0.54140  0.53080  Biso   1.000  N
  N6       1.0000 0.09780  0.21570  0.27160  Biso   1.000  N
  N7       1.0000 0.40170  0.75220  0.59340  Biso   1.000  N
  N8       1.0000 0.76350  0.05440  0.86880  Biso   1.000  N
  Cd3      1.0000 0.73319  0.84829  0.43909  Biso   1.000  Cd
  C53      1.0000 0.45610  0.91670  0.48280  Biso   1.000  C
  H57      1.0000 0.43920  0.84460  0.47690  Biso   1.000  H
  C54      1.0000 0.58870  0.06030  0.47830  Biso   1.000  C
  H58      1.0000 0.66570  0.09090  0.46900  Biso   1.000  H
  C55      1.0000 0.50160  0.12500  0.50070  Biso   1.000  C
  H59      1.0000 0.52260  0.19620  0.50700  Biso   1.000  H
  C56      1.0000 0.36480  0.97720  0.50490  Biso   1.000  C
  H60      1.0000 0.28840  0.94490  0.51400  Biso   1.000  H
  C57      1.0000 0.38340  0.08570  0.51410  Biso   1.000  C
  C58      1.0000 0.29000  0.15090  0.53820  Biso   1.000  C
  H61      1.0000 0.21830  0.10540  0.54670  Biso   1.000  H
  H62      1.0000 0.25830  0.20460  0.51660  Biso   1.000  H
  C59      1.0000 0.33560  0.20650  0.58090  Biso   1.000  C
  H63      1.0000 0.40270  0.25650  0.57210  Biso   1.000  H
  H64      1.0000 0.26540  0.24800  0.59370  Biso   1.000  H
  C60      1.0000 0.38500  0.13530  0.61730  Biso   1.000  C
  H65      1.0000 0.44120  0.08330  0.60270  Biso   1.000  H
  H66      1.0000 0.31330  0.09600  0.63040  Biso   1.000  H
  C61      1.0000 0.45720  0.18730  0.65720  Biso   1.000  C
  C62      1.0000 0.56610  0.24810  0.64880  Biso   1.000  C
  H67      1.0000 0.59490  0.25630  0.61830  Biso   1.000  H
  C63      1.0000 0.63290  0.29690  0.68470  Biso   1.000  C
  H68      1.0000 0.70370  0.33930  0.67770  Biso   1.000  H
  C64      1.0000 0.43020  0.17730  0.70290  Biso   1.000  C
  H69      1.0000 0.35840  0.13880  0.71230  Biso   1.000  H
  C65      1.0000 0.50600  0.22220  0.73480  Biso   1.000  C
  H70      1.0000 0.48820  0.20510  0.76570  Biso   1.000  H
  C66      1.0000 0.36260  0.44760  0.15710  Biso   1.000  C
  H71      1.0000 0.44110  0.42680  0.14470  Biso   1.000  H
  C67      1.0000 0.35560  0.48090  0.20450  Biso   1.000  C
  H72      1.0000 0.42790  0.47300  0.22310  Biso   1.000  H
  C68      1.0000 0.15690  0.48350  0.14960  Biso   1.000  C
  H73      1.0000 0.08450  0.48400  0.13080  Biso   1.000  H
  C69      1.0000 0.14350  0.52270  0.19450  Biso   1.000  C
  H74      1.0000 0.06600  0.54880  0.20570  Biso   1.000  H
  C70      1.0000 0.25690  0.52040  0.22250  Biso   1.000  C
  C71      1.0000 0.23500  0.57780  0.27100  Biso   1.000  C
  H75      1.0000 0.30960  0.61990  0.27930  Biso   1.000  H
  H76      1.0000 0.16170  0.62560  0.26910  Biso   1.000  H
  C72      1.0000 0.21100  0.49230  0.30740  Biso   1.000  C
  H77      1.0000 0.13000  0.45720  0.30160  Biso   1.000  H
  H78      1.0000 0.27840  0.43860  0.30610  Biso   1.000  H
  C73      1.0000 0.20990  0.54480  0.35460  Biso   1.000  C
  H79      1.0000 0.28800  0.58660  0.35700  Biso   1.000  H
  H80      1.0000 0.21630  0.48770  0.37750  Biso   1.000  H
  C74      1.0000 0.09810  0.61920  0.37040  Biso   1.000  C
  C75      1.0000 0.98000  0.62750  0.34940  Biso   1.000  C
  H81      1.0000 0.96360  0.58920  0.32220  Biso   1.000  H
  C76      1.0000 0.88980  0.68900  0.36740  Biso   1.000  C
  H82      1.0000 0.81180  0.69210  0.35180  Biso   1.000  H
  C77      1.0000 0.11300  0.67820  0.40980  Biso   1.000  C
  H83      1.0000 0.19070  0.67600  0.42560  Biso   1.000  H
  C78      1.0000 0.01360  0.74260  0.42700  Biso   1.000  C
  H84      1.0000 0.02760  0.78300  0.45390  Biso   1.000  H
  N9       1.0000 0.57060  0.95860  0.46920  Biso   1.000  N
  N10      1.0000 0.59780  0.28430  0.72840  Biso   1.000  N
  N11      1.0000 0.90170  0.74780  0.40660  Biso   1.000  N
  N12      1.0000 0.26350  0.44560  0.13120  Biso   1.000  N
  Cd4      1.0000 0.26681  0.34829  0.06091  Biso   1.000  Cd
  C79      1.0000 0.54390  0.41670  0.01720  Biso   1.000  C
  H85      1.0000 0.56080  0.34460  0.02310  Biso   1.000  H
  C80      1.0000 0.41130  0.56030  0.02170  Biso   1.000  C
  H86      1.0000 0.33430  0.59090  0.03100  Biso   1.000  H
  C81      1.0000 0.49840  0.62500  0.99930  Biso   1.000  C
  H87      1.0000 0.47740  0.69620  0.99300  Biso   1.000  H
  C82      1.0000 0.63520  0.47720  0.99510  Biso   1.000  C
  H88      1.0000 0.71160  0.44490  0.98600  Biso   1.000  H
  C83      1.0000 0.61660  0.58570  0.98590  Biso   1.000  C
  C84      1.0000 0.71000  0.65090  0.96180  Biso   1.000  C
  H89      1.0000 0.78170  0.60540  0.95330  Biso   1.000  H
  H90      1.0000 0.74170  0.70460  0.98340  Biso   1.000  H
  C85      1.0000 0.66440  0.70650  0.91910  Biso   1.000  C
  H91      1.0000 0.59730  0.75650  0.92790  Biso   1.000  H
  H92      1.0000 0.73460  0.74800  0.90630  Biso   1.000  H
  C86      1.0000 0.61500  0.63530  0.88270  Biso   1.000  C
  H93      1.0000 0.55880  0.58330  0.89730  Biso   1.000  H
  H94      1.0000 0.68670  0.59600  0.86960  Biso   1.000  H
  C87      1.0000 0.54280  0.68730  0.84280  Biso   1.000  C
  C88      1.0000 0.43390  0.74810  0.85120  Biso   1.000  C
  H95      1.0000 0.40510  0.75630  0.88170  Biso   1.000  H
  C89      1.0000 0.36710  0.79690  0.81530  Biso   1.000  C
  H96      1.0000 0.29630  0.83930  0.82230  Biso   1.000  H
  C90      1.0000 0.56980  0.67730  0.79710  Biso   1.000  C
  H97      1.0000 0.64160  0.63880  0.78770  Biso   1.000  H
  C91      1.0000 0.49400  0.72220  0.76520  Biso   1.000  C
  H98      1.0000 0.51180  0.70510  0.73430  Biso   1.000  H
  C92      1.0000 0.63740  0.94760  0.34290  Biso   1.000  C
  H99      1.0000 0.55890  0.92680  0.35530  Biso   1.000  H
  C93      1.0000 0.64440  0.98090  0.29550  Biso   1.000  C
  H100     1.0000 0.57210  0.97300  0.27690  Biso   1.000  H
  C94      1.0000 0.84310  0.98350  0.35040  Biso   1.000  C
  H101     1.0000 0.91550  0.98400  0.36920  Biso   1.000  H
  C95      1.0000 0.85650  0.02270  0.30550  Biso   1.000  C
  H102     1.0000 0.93400  0.04880  0.29430  Biso   1.000  H
  C96      1.0000 0.74310  0.02040  0.27750  Biso   1.000  C
  C97      1.0000 0.76500  0.07780  0.22900  Biso   1.000  C
  H103     1.0000 0.69040  0.11990  0.22070  Biso   1.000  H
  H104     1.0000 0.83830  0.12560  0.23090  Biso   1.000  H
  C98      1.0000 0.78900  0.99230  0.19260  Biso   1.000  C
  H105     1.0000 0.87000  0.95720  0.19840  Biso   1.000  H
  H106     1.0000 0.72160  0.93860  0.19390  Biso   1.000  H
  C99      1.0000 0.79010  0.04480  0.14540  Biso   1.000  C
  H107     1.0000 0.71200  0.08660  0.14300  Biso   1.000  H
  H108     1.0000 0.78370  0.98770  0.12250  Biso   1.000  H
  C100     1.0000 0.90190  0.11920  0.12960  Biso   1.000  C
  C101     1.0000 0.02000  0.12750  0.15060  Biso   1.000  C
  H109     1.0000 0.03640  0.08920  0.17780  Biso   1.000  H
  C102     1.0000 0.11020  0.18900  0.13260  Biso   1.000  C
  H110     1.0000 0.18820  0.19210  0.14820  Biso   1.000  H
  C103     1.0000 0.88700  0.17820  0.09020  Biso   1.000  C
  H111     1.0000 0.80930  0.17600  0.07440  Biso   1.000  H
  C104     1.0000 0.98640  0.24260  0.07300  Biso   1.000  C
  H112     1.0000 0.97240  0.28300  0.04610  Biso   1.000  H
  N13      1.0000 0.42940  0.45860  0.03080  Biso   1.000  N
  N14      1.0000 0.40220  0.78430  0.77160  Biso   1.000  N
  N15      1.0000 0.09830  0.24780  0.09340  Biso   1.000  N
  N16      1.0000 0.73650  0.94560  0.36880  Biso   1.000  N
