data_image0
_cell_length_a       9.061
_cell_length_b       13.652
_cell_length_c       12.96
_cell_angle_alpha    90
_cell_angle_beta     90.642
_cell_angle_gamma    90

_symmetry_space_group_name_H-M    "P 1"
_symmetry_int_tables_number       1

loop_
  _symmetry_equiv_pos_as_xyz
  'x, y, z'

loop_
  _atom_site_label
  _atom_site_occupancy
  _atom_site_fract_x
  _atom_site_fract_y
  _atom_site_fract_z
  _atom_site_thermal_displace_type
  _atom_site_B_iso_or_equiv
  _atom_site_type_symbol
  Cd1      1.0000 0.97339  0.42145  0.35778  Biso   1.000  Cd
  N1       1.0000 0.06370  0.95350  0.33900  Biso   1.000  N
  H1       1.0000 0.15160  0.93020  0.33490  Biso   1.000  H
  N2       1.0000 0.94380  0.89220  0.33400  Biso   1.000  N
  H2       1.0000 0.85770  0.91670  0.32280  Biso   1.000  H
  N3       1.0000 0.00180  0.25431  0.36490  Biso   1.000  N
  C1       1.0000 0.13840  0.21661  0.33750  Biso   1.000  C
  H3       1.0000 0.21640  0.25880  0.32400  Biso   1.000  H
  C2       1.0000 0.15830  0.11589  0.33040  Biso   1.000  C
  H4       1.0000 0.24970  0.09070  0.31210  Biso   1.000  H
  C3       1.0000 0.04170  0.05288  0.35070  Biso   1.000  C
  C4       1.0000 0.90510  0.09058  0.37810  Biso   1.000  C
  H5       1.0000 0.82710  0.04840  0.39160  Biso   1.000  H
  C5       1.0000 0.88520  0.19130  0.38520  Biso   1.000  C
  H6       1.0000 0.79380  0.21650  0.40350  Biso   1.000  H
  N4       1.0000 0.97280  0.58941  0.36210  Biso   1.000  N
  C6       1.0000 0.09620  0.64591  0.38560  Biso   1.000  C
  H7       1.0000 0.18370  0.61580  0.40660  Biso   1.000  H
  C7       1.0000 0.08910  0.74735  0.37770  Biso   1.000  C
  H8       1.0000 0.17170  0.78510  0.39350  Biso   1.000  H
  C8       1.0000 0.95840  0.79228  0.34640  Biso   1.000  C
  C9       1.0000 0.83500  0.73578  0.32290  Biso   1.000  C
  H9       1.0000 0.74750  0.76580  0.30190  Biso   1.000  H
  C10      1.0000 0.84210  0.63434  0.33070  Biso   1.000  C
  H10      1.0000 0.75950  0.59650  0.31500  Biso   1.000  H
  Cd2      1.0000 0.02661  0.42145  0.64222  Biso   1.000  Cd
  N5       1.0000 0.93630  0.95350  0.66100  Biso   1.000  N
  H11      1.0000 0.84840  0.93020  0.66510  Biso   1.000  H
  N6       1.0000 0.05620  0.89220  0.66600  Biso   1.000  N
  H12      1.0000 0.14230  0.91670  0.67720  Biso   1.000  H
  N7       1.0000 0.99820  0.25431  0.63510  Biso   1.000  N
  C11      1.0000 0.86160  0.21661  0.66250  Biso   1.000  C
  H13      1.0000 0.78360  0.25880  0.67600  Biso   1.000  H
  C12      1.0000 0.84170  0.11589  0.66960  Biso   1.000  C
  H14      1.0000 0.75030  0.09070  0.68790  Biso   1.000  H
  C13      1.0000 0.95830  0.05288  0.64930  Biso   1.000  C
  C14      1.0000 0.09490  0.09058  0.62190  Biso   1.000  C
  H15      1.0000 0.17290  0.04840  0.60840  Biso   1.000  H
  C15      1.0000 0.11480  0.19130  0.61480  Biso   1.000  C
  H16      1.0000 0.20620  0.21650  0.59650  Biso   1.000  H
  N8       1.0000 0.02720  0.58941  0.63790  Biso   1.000  N
  C16      1.0000 0.90380  0.64591  0.61440  Biso   1.000  C
  H17      1.0000 0.81630  0.61580  0.59340  Biso   1.000  H
  C17      1.0000 0.91090  0.74735  0.62230  Biso   1.000  C
  H18      1.0000 0.82830  0.78510  0.60650  Biso   1.000  H
  C18      1.0000 0.04160  0.79228  0.65360  Biso   1.000  C
  C19      1.0000 0.16500  0.73578  0.67710  Biso   1.000  C
  H19      1.0000 0.25250  0.76580  0.69810  Biso   1.000  H
  C20      1.0000 0.15790  0.63434  0.66930  Biso   1.000  C
  H20      1.0000 0.24050  0.59650  0.68500  Biso   1.000  H
  Cd3      1.0000 0.47339  0.92145  0.85778  Biso   1.000  Cd
  N9       1.0000 0.56370  0.45350  0.83900  Biso   1.000  N
  H21      1.0000 0.65160  0.43020  0.83490  Biso   1.000  H
  N10      1.0000 0.44380  0.39220  0.83400  Biso   1.000  N
  H22      1.0000 0.35770  0.41670  0.82280  Biso   1.000  H
  N11      1.0000 0.50180  0.75431  0.86490  Biso   1.000  N
  C21      1.0000 0.63840  0.71661  0.83750  Biso   1.000  C
  H23      1.0000 0.71640  0.75880  0.82400  Biso   1.000  H
  C22      1.0000 0.65830  0.61589  0.83040  Biso   1.000  C
  H24      1.0000 0.74970  0.59070  0.81210  Biso   1.000  H
  C23      1.0000 0.54170  0.55288  0.85070  Biso   1.000  C
  C24      1.0000 0.40510  0.59058  0.87810  Biso   1.000  C
  H25      1.0000 0.32710  0.54840  0.89160  Biso   1.000  H
  C25      1.0000 0.38520  0.69130  0.88520  Biso   1.000  C
  H26      1.0000 0.29380  0.71650  0.90350  Biso   1.000  H
  N12      1.0000 0.47280  0.08941  0.86210  Biso   1.000  N
  C26      1.0000 0.59620  0.14591  0.88560  Biso   1.000  C
  H27      1.0000 0.68370  0.11580  0.90660  Biso   1.000  H
  C27      1.0000 0.58910  0.24735  0.87770  Biso   1.000  C
  H28      1.0000 0.67170  0.28510  0.89350  Biso   1.000  H
  C28      1.0000 0.45840  0.29228  0.84640  Biso   1.000  C
  C29      1.0000 0.33500  0.23578  0.82290  Biso   1.000  C
  H29      1.0000 0.24750  0.26580  0.80190  Biso   1.000  H
  C30      1.0000 0.34210  0.13434  0.83070  Biso   1.000  C
  H30      1.0000 0.25950  0.09650  0.81500  Biso   1.000  H
  Cd4      1.0000 0.52661  0.92145  0.14222  Biso   1.000  Cd
  N13      1.0000 0.43630  0.45350  0.16100  Biso   1.000  N
  H31      1.0000 0.34840  0.43020  0.16510  Biso   1.000  H
  N14      1.0000 0.55620  0.39220  0.16600  Biso   1.000  N
  H32      1.0000 0.64230  0.41670  0.17720  Biso   1.000  H
  N15      1.0000 0.49820  0.75431  0.13510  Biso   1.000  N
  C31      1.0000 0.36160  0.71661  0.16250  Biso   1.000  C
  H33      1.0000 0.28360  0.75880  0.17600  Biso   1.000  H
  C32      1.0000 0.34170  0.61589  0.16960  Biso   1.000  C
  H34      1.0000 0.25030  0.59070  0.18790  Biso   1.000  H
  C33      1.0000 0.45830  0.55288  0.14930  Biso   1.000  C
  C34      1.0000 0.59490  0.59058  0.12190  Biso   1.000  C
  H35      1.0000 0.67290  0.54840  0.10840  Biso   1.000  H
  C35      1.0000 0.61480  0.69130  0.11480  Biso   1.000  C
  H36      1.0000 0.70620  0.71650  0.09650  Biso   1.000  H
  N16      1.0000 0.52720  0.08941  0.13790  Biso   1.000  N
  C36      1.0000 0.40380  0.14591  0.11440  Biso   1.000  C
  H37      1.0000 0.31630  0.11580  0.09340  Biso   1.000  H
  C37      1.0000 0.41090  0.24735  0.12230  Biso   1.000  C
  H38      1.0000 0.32830  0.28510  0.10650  Biso   1.000  H
  C38      1.0000 0.54160  0.29228  0.15360  Biso   1.000  C
  C39      1.0000 0.66500  0.23578  0.17710  Biso   1.000  C
  H39      1.0000 0.75250  0.26580  0.19810  Biso   1.000  H
  C40      1.0000 0.65790  0.13434  0.16930  Biso   1.000  C
  H40      1.0000 0.74050  0.09650  0.18500  Biso   1.000  H
