data_image0
_cell_length_a       8.562
_cell_length_b       8.11
_cell_length_c       11.448
_cell_angle_alpha    90
_cell_angle_beta     90
_cell_angle_gamma    90

_symmetry_space_group_name_H-M    "P 1"
_symmetry_int_tables_number       1

loop_
  _symmetry_equiv_pos_as_xyz
  'x, y, z'

loop_
  _atom_site_label
  _atom_site_occupancy
  _atom_site_fract_x
  _atom_site_fract_y
  _atom_site_fract_z
  _atom_site_thermal_displace_type
  _atom_site_B_iso_or_equiv
  _atom_site_type_symbol
  O1       1.0000 0.47710  0.38370  0.65420  Biso   1.000  O
  O2       1.0000 0.52290  0.61630  0.15420  Biso   1.000  O
  O3       1.0000 0.52290  0.61630  0.34580  Biso   1.000  O
  O4       1.0000 0.47710  0.38370  0.84580  Biso   1.000  O
  Cu1      1.0000 0.50000  0.50000  0.50000  Biso   1.000  Cu
  Cu2      1.0000 0.50000  0.50000  0.00000  Biso   1.000  Cu
  C1       1.0000 0.49510  0.45330  0.75000  Biso   1.000  C
  H1       1.0000 0.54600  0.57700  0.75000  Biso   1.000  H
  C2       1.0000 0.50490  0.54670  0.25000  Biso   1.000  C
  H2       1.0000 0.45400  0.42300  0.25000  Biso   1.000  H
  O5       1.0000 0.02290  0.88370  0.34580  Biso   1.000  O
  O6       1.0000 0.97710  0.11630  0.84580  Biso   1.000  O
  O7       1.0000 0.97710  0.11630  0.65420  Biso   1.000  O
  O8       1.0000 0.02290  0.88370  0.15420  Biso   1.000  O
  Cu3      1.0000 0.00000  0.00000  0.50000  Biso   1.000  Cu
  Cu4      1.0000 0.00000  0.00000  0.00000  Biso   1.000  Cu
  C3       1.0000 0.00490  0.95330  0.25000  Biso   1.000  C
  H3       1.0000 0.95400  0.07700  0.25000  Biso   1.000  H
  C4       1.0000 0.99510  0.04670  0.75000  Biso   1.000  C
  H4       1.0000 0.04600  0.92300  0.75000  Biso   1.000  H
