data_image0
_cell_length_a       13.2906
_cell_length_b       13.844
_cell_length_c       16.453
_cell_angle_alpha    97.035
_cell_angle_beta     108.809
_cell_angle_gamma    102.831

_symmetry_space_group_name_H-M    P 1
_symmetry_int_tables_number       1

loop_
  _symmetry_equiv_pos_as_xyz
  'x, y, z'

loop_
  _atom_site_label
  _atom_site_occupancy
  _atom_site_fract_x
  _atom_site_fract_y
  _atom_site_fract_z
  _atom_site_thermal_displace_type
  _atom_site_B_iso_or_equiv
  _atom_site_type_symbol
  H1       1.0000 0.43110  0.29790  0.18410  Biso   1.000  H
  H2       1.0000 0.31270  0.27100  0.11130  Biso   1.000  H
  H3       1.0000 0.30940  0.34670  0.24400  Biso   1.000  H
  H4       1.0000 0.40100  0.44310  0.24900  Biso   1.000  H
  H5       1.0000 0.28290  0.41630  0.17620  Biso   1.000  H
  H6       1.0000 0.22810  0.65660  0.96390  Biso   1.000  H
  H7       1.0000 0.32780  0.74180  0.03430  Biso   1.000  H
  H8       1.0000 0.19550  0.68340  0.09500  Biso   1.000  H
  H9       1.0000 0.20540  0.57300  0.07480  Biso   1.000  H
  H10      1.0000 0.30520  0.65770  0.14500  Biso   1.000  H
  H11      1.0000 0.56890  0.70210  0.81590  Biso   1.000  H
  H12      1.0000 0.68730  0.72900  0.88870  Biso   1.000  H
  H13      1.0000 0.69060  0.65330  0.75600  Biso   1.000  H
  H14      1.0000 0.59900  0.55690  0.75100  Biso   1.000  H
  H15      1.0000 0.71710  0.58370  0.82380  Biso   1.000  H
  H16      1.0000 0.77190  0.34340  0.03610  Biso   1.000  H
  H17      1.0000 0.67220  0.25820  0.96570  Biso   1.000  H
  H18      1.0000 0.80450  0.31660  0.90500  Biso   1.000  H
  H19      1.0000 0.79460  0.42700  0.92520  Biso   1.000  H
  H20      1.0000 0.69480  0.34230  0.85500  Biso   1.000  H
  Rh1      1.0000 0.42988  0.44543  0.93521  Biso   1.000  Rh
  Rh2      1.0000 0.57012  0.55457  0.06479  Biso   1.000  Rh
  C1       1.0000 0.42250  0.38910  0.09450  Biso   1.000  C
  C2       1.0000 0.37540  0.32660  0.14960  Biso   1.000  C
  C3       1.0000 0.33890  0.38880  0.21020  Biso   1.000  C
  C4       1.0000 0.36680  0.60810  0.01190  Biso   1.000  C
  C5       1.0000 0.28890  0.67030  0.01960  Biso   1.000  C
  C6       1.0000 0.24480  0.64370  0.09000  Biso   1.000  C
  C7       1.0000 0.57750  0.61090  0.90550  Biso   1.000  C
  C8       1.0000 0.62460  0.67340  0.85040  Biso   1.000  C
  C9       1.0000 0.66110  0.61120  0.78980  Biso   1.000  C
  C10      1.0000 0.63320  0.39190  0.98810  Biso   1.000  C
  C11      1.0000 0.71110  0.32970  0.98040  Biso   1.000  C
  C12      1.0000 0.75520  0.35630  0.91000  Biso   1.000  C
  O1       1.0000 0.37450  0.36060  0.01230  Biso   1.000  O
  O2       1.0000 0.33040  0.53410  0.94730  Biso   1.000  O
  O3       1.0000 0.50580  0.46420  0.13490  Biso   1.000  O
  O4       1.0000 0.46240  0.63610  0.06980  Biso   1.000  O
  O5       1.0000 0.29340  0.32980  0.81090  Biso   1.000  O
  O6       1.0000 0.62550  0.63940  0.98770  Biso   1.000  O
  O7       1.0000 0.66960  0.46590  0.05270  Biso   1.000  O
  O8       1.0000 0.49420  0.53580  0.86510  Biso   1.000  O
  O9       1.0000 0.53760  0.36390  0.93020  Biso   1.000  O
  O10      1.0000 0.70660  0.67020  0.18910  Biso   1.000  O
