data_image0
_cell_length_a       8.2133
_cell_length_b       9.1739
_cell_length_c       15.3408
_cell_angle_alpha    100.08
_cell_angle_beta     96.915
_cell_angle_gamma    100.336

_symmetry_space_group_name_H-M    "P 1"
_symmetry_int_tables_number       1

loop_
  _symmetry_equiv_pos_as_xyz
  'x, y, z'

loop_
  _atom_site_label
  _atom_site_occupancy
  _atom_site_fract_x
  _atom_site_fract_y
  _atom_site_fract_z
  _atom_site_thermal_displace_type
  _atom_site_B_iso_or_equiv
  _atom_site_type_symbol
  Cd1      1.0000 0.48382  0.19267  0.61916  Biso   1.000  Cd
  N1       1.0000 0.68270  0.05400  0.57940  Biso   1.000  N
  N2       1.0000 0.69120  0.94260  0.51050  Biso   1.000  N
  N3       1.0000 0.91090  0.96310  0.61710  Biso   1.000  N
  N4       1.0000 0.74180  0.27230  0.73360  Biso   1.000  N
  N5       1.0000 0.03370  0.31020  0.85530  Biso   1.000  N
  N6       1.0000 0.76150  0.70110  0.40200  Biso   1.000  N
  N7       1.0000 0.06130  0.60850  0.43590  Biso   1.000  N
  C1       1.0000 0.81470  0.06290  0.64060  Biso   1.000  C
  C2       1.0000 0.82790  0.89140  0.53540  Biso   1.000  C
  C3       1.0000 0.84870  0.17780  0.72310  Biso   1.000  C
  C4       1.0000 0.98940  0.19450  0.78520  Biso   1.000  C
  H1       1.0000 0.05620  0.12270  0.77820  Biso   1.000  H
  C5       1.0000 0.92960  0.40660  0.86400  Biso   1.000  C
  H2       1.0000 0.95700  0.49000  0.91120  Biso   1.000  H
  C6       1.0000 0.78280  0.38590  0.80520  Biso   1.000  C
  H3       1.0000 0.71080  0.45230  0.81550  Biso   1.000  H
  C7       1.0000 0.87360  0.76730  0.47590  Biso   1.000  C
  C8       1.0000 0.02420  0.72080  0.49210  Biso   1.000  C
  H4       1.0000 0.10050  0.76920  0.54330  Biso   1.000  H
  C9       1.0000 0.94910  0.54130  0.36470  Biso   1.000  C
  H5       1.0000 0.97140  0.46080  0.32520  Biso   1.000  H
  C10      1.0000 0.79880  0.58750  0.34710  Biso   1.000  C
  H6       1.0000 0.72300  0.53810  0.29600  Biso   1.000  H
  Cd2      1.0000 0.51618  0.80733  0.38084  Biso   1.000  Cd
  N8       1.0000 0.31730  0.94600  0.42060  Biso   1.000  N
  N9       1.0000 0.30880  0.05740  0.48950  Biso   1.000  N
  N10      1.0000 0.08910  0.03690  0.38290  Biso   1.000  N
  N11      1.0000 0.25820  0.72770  0.26640  Biso   1.000  N
  N12      1.0000 0.96630  0.68980  0.14470  Biso   1.000  N
  N13      1.0000 0.23850  0.29890  0.59800  Biso   1.000  N
  N14      1.0000 0.93870  0.39150  0.56410  Biso   1.000  N
  C11      1.0000 0.18530  0.93710  0.35940  Biso   1.000  C
  C12      1.0000 0.17210  0.10860  0.46460  Biso   1.000  C
  C13      1.0000 0.15130  0.82220  0.27690  Biso   1.000  C
  C14      1.0000 0.01060  0.80550  0.21480  Biso   1.000  C
  H7       1.0000 0.94380  0.87730  0.22180  Biso   1.000  H
  C15      1.0000 0.07040  0.59340  0.13600  Biso   1.000  C
  H8       1.0000 0.04300  0.51000  0.08880  Biso   1.000  H
  C16      1.0000 0.21720  0.61410  0.19480  Biso   1.000  C
  H9       1.0000 0.28920  0.54770  0.18450  Biso   1.000  H
  C17      1.0000 0.12640  0.23270  0.52410  Biso   1.000  C
  C18      1.0000 0.97580  0.27920  0.50790  Biso   1.000  C
  H10      1.0000 0.89950  0.23080  0.45670  Biso   1.000  H
  C19      1.0000 0.05090  0.45870  0.63530  Biso   1.000  C
  H11      1.0000 0.02860  0.53920  0.67480  Biso   1.000  H
  C20      1.0000 0.20120  0.41250  0.65290  Biso   1.000  C
  H12      1.0000 0.27700  0.46190  0.70400  Biso   1.000  H
