data_image0
_cell_length_a       7.8173
_cell_length_b       9.3157
_cell_length_c       18.564
_cell_angle_alpha    95.834
_cell_angle_beta     96.049
_cell_angle_gamma    92.507

_symmetry_space_group_name_H-M    "P 1"
_symmetry_int_tables_number       1

loop_
  _symmetry_equiv_pos_as_xyz
  'x, y, z'

loop_
  _atom_site_label
  _atom_site_occupancy
  _atom_site_fract_x
  _atom_site_fract_y
  _atom_site_fract_z
  _atom_site_thermal_displace_type
  _atom_site_B_iso_or_equiv
  _atom_site_type_symbol
  C1       1.0000 0.23170  0.62990  0.25550  Biso   1.000  C
  H1       1.0000 0.20120  0.53370  0.25980  Biso   1.000  H
  C2       1.0000 0.22900  0.82430  0.19150  Biso   1.000  C
  H2       1.0000 0.19960  0.86580  0.14870  Biso   1.000  H
  C3       1.0000 0.31350  0.90840  0.25010  Biso   1.000  C
  H3       1.0000 0.33850  0.00570  0.24640  Biso   1.000  H
  C4       1.0000 0.32380  0.71440  0.31480  Biso   1.000  C
  C5       1.0000 0.48060  0.48290  0.36320  Biso   1.000  C
  C6       1.0000 0.46020  0.35580  0.39410  Biso   1.000  C
  H4       1.0000 0.39210  0.35320  0.43210  Biso   1.000  H
  C7       1.0000 0.63020  0.24410  0.31550  Biso   1.000  C
  H5       1.0000 0.68260  0.16230  0.29750  Biso   1.000  H
  C8       1.0000 0.65190  0.37240  0.28450  Biso   1.000  C
  C9       1.0000 0.68320  0.48790  0.15700  Biso   1.000  C
  C10      1.0000 0.50840  0.46590  0.13560  Biso   1.000  C
  H6       1.0000 0.44720  0.39200  0.15360  Biso   1.000  H
  C11      1.0000 0.51790  0.64830  0.06560  Biso   1.000  C
  H7       1.0000 0.46320  0.70990  0.03530  Biso   1.000  H
  C12      1.0000 0.69210  0.66670  0.08290  Biso   1.000  C
  H8       1.0000 0.75340  0.73730  0.06260  Biso   1.000  H
  C13      1.0000 0.81480  0.86980  0.48400  Biso   1.000  C
  C14      1.0000 0.98990  0.80410  0.47760  Biso   1.000  C
  H9       1.0000 0.02270  0.81420  0.42930  Biso   1.000  H
  H10      1.0000 0.07570  0.85860  0.51260  Biso   1.000  H
  C15      1.0000 0.99190  0.64700  0.49030  Biso   1.000  C
  C16      1.0000 0.03290  0.60470  0.55810  Biso   1.000  C
  H11      1.0000 0.05660  0.67420  0.59790  Biso   1.000  H
  C17      1.0000 0.03990  0.45960  0.56830  Biso   1.000  C
  H12      1.0000 0.06610  0.43320  0.61500  Biso   1.000  H
  N1       1.0000 0.18710  0.68410  0.19360  Biso   1.000  N
  N2       1.0000 0.36180  0.85380  0.31350  Biso   1.000  N
  N3       1.0000 0.57930  0.49330  0.30840  Biso   1.000  N
  N4       1.0000 0.53500  0.23630  0.37110  Biso   1.000  N
  N5       1.0000 0.42490  0.54740  0.09010  Biso   1.000  N
  O1       1.0000 0.73440  0.90440  0.42770  Biso   1.000  O
  O2       1.0000 0.76620  0.88820  0.54610  Biso   1.000  O
  S1       1.0000 0.38460  0.64030  0.39785  Biso   1.000  S
  S2       1.0000 0.79480  0.37790  0.21696  Biso   1.000  S
  Ag1      1.0000 0.47886  0.00928  0.42336  Biso   1.000  Ag
  N6       1.0000 0.77660  0.58430  0.12890  Biso   1.000  N
  C18      1.0000 0.76830  0.37010  0.74450  Biso   1.000  C
  H13      1.0000 0.79880  0.46630  0.74020  Biso   1.000  H
  C19      1.0000 0.77100  0.17570  0.80850  Biso   1.000  C
  H14      1.0000 0.80040  0.13420  0.85130  Biso   1.000  H
  C20      1.0000 0.68650  0.09160  0.74990  Biso   1.000  C
  H15      1.0000 0.66150  0.99430  0.75360  Biso   1.000  H
  C21      1.0000 0.67620  0.28560  0.68520  Biso   1.000  C
  C22      1.0000 0.51940  0.51710  0.63680  Biso   1.000  C
  C23      1.0000 0.53980  0.64420  0.60590  Biso   1.000  C
  H16      1.0000 0.60790  0.64680  0.56790  Biso   1.000  H
  C24      1.0000 0.36980  0.75590  0.68450  Biso   1.000  C
  H17      1.0000 0.31740  0.83770  0.70250  Biso   1.000  H
  C25      1.0000 0.34810  0.62760  0.71550  Biso   1.000  C
  C26      1.0000 0.31680  0.51210  0.84300  Biso   1.000  C
  C27      1.0000 0.49160  0.53410  0.86440  Biso   1.000  C
  H18      1.0000 0.55280  0.60800  0.84640  Biso   1.000  H
  C28      1.0000 0.48210  0.35170  0.93440  Biso   1.000  C
  H19      1.0000 0.53680  0.29010  0.96470  Biso   1.000  H
  C29      1.0000 0.30790  0.33330  0.91710  Biso   1.000  C
  H20      1.0000 0.24660  0.26270  0.93740  Biso   1.000  H
  C30      1.0000 0.18520  0.13020  0.51600  Biso   1.000  C
  C31      1.0000 0.01010  0.19590  0.52240  Biso   1.000  C
  H21      1.0000 0.97730  0.18580  0.57070  Biso   1.000  H
  H22      1.0000 0.92430  0.14140  0.48740  Biso   1.000  H
  C32      1.0000 0.00810  0.35300  0.50970  Biso   1.000  C
  C33      1.0000 0.96710  0.39530  0.44190  Biso   1.000  C
  H23      1.0000 0.94340  0.32580  0.40210  Biso   1.000  H
  C34      1.0000 0.96010  0.54040  0.43170  Biso   1.000  C
  H24      1.0000 0.93390  0.56680  0.38500  Biso   1.000  H
  N7       1.0000 0.81290  0.31590  0.80640  Biso   1.000  N
  N8       1.0000 0.63820  0.14620  0.68650  Biso   1.000  N
  N9       1.0000 0.42070  0.50670  0.69160  Biso   1.000  N
  N10      1.0000 0.46500  0.76370  0.62890  Biso   1.000  N
  N11      1.0000 0.57510  0.45260  0.90990  Biso   1.000  N
  O3       1.0000 0.26560  0.09560  0.57230  Biso   1.000  O
  O4       1.0000 0.23380  0.11180  0.45390  Biso   1.000  O
  S3       1.0000 0.61540  0.35970  0.60215  Biso   1.000  S
  S4       1.0000 0.20520  0.62210  0.78304  Biso   1.000  S
  Ag2      1.0000 0.52114  0.99072  0.57664  Biso   1.000  Ag
  N12      1.0000 0.22340  0.41570  0.87110  Biso   1.000  N
