data_image0
_cell_length_a       31.3518
_cell_length_b       18.101
_cell_length_c       18.101
_cell_angle_alpha    90
_cell_angle_beta     125.26
_cell_angle_gamma    90

_symmetry_space_group_name_H-M    "P 1"
_symmetry_int_tables_number       1

loop_
  _symmetry_equiv_pos_as_xyz
  'x, y, z'

loop_
  _atom_site_label
  _atom_site_occupancy
  _atom_site_fract_x
  _atom_site_fract_y
  _atom_site_fract_z
  _atom_site_thermal_displace_type
  _atom_site_B_iso_or_equiv
  _atom_site_type_symbol
  Zn1      1.0000 0.29362  0.41267  0.29365  Biso   1.000  Zn
  O1       1.0000 0.21780  0.41870  0.07180  Biso   1.000  O
  O2       1.0000 0.28220  0.35290  0.19990  Biso   1.000  O
  O3       1.0000 0.21690  0.41810  0.36380  Biso   1.000  O
  O4       1.0000 0.28250  0.35280  0.36440  Biso   1.000  O
  O5       1.0000 0.36450  0.43470  0.36580  Biso   1.000  O
  C1       1.0000 0.24840  0.36730  0.11290  Biso   1.000  C
  C2       1.0000 0.25180  0.30010  0.05390  Biso   1.000  C
  C3       1.0000 0.21690  0.30990  0.95510  Biso   1.000  C
  H1       1.0000 0.19640  0.35340  0.92990  Biso   1.000  H
  C4       1.0000 0.28560  0.24110  0.09680  Biso   1.000  C
  H2       1.0000 0.30920  0.23840  0.16080  Biso   1.000  H
  C5       1.0000 0.25030  0.36720  0.38380  Biso   1.000  C
  Br1      1.0000 0.17030  0.39240  0.89330  Biso   1.000  Br
  C6       1.0000 0.18010  0.37490  0.90650  Biso   1.000  C
  Br2      1.0000 0.33640  0.23220  0.23320  Biso   1.000  Br
  C7       1.0000 0.32580  0.23440  0.20450  Biso   1.000  C
  Zn2      1.0000 0.20638  0.91267  0.70635  Biso   1.000  Zn
  O6       1.0000 0.28220  0.91870  0.92820  Biso   1.000  O
  O7       1.0000 0.21780  0.85290  0.80010  Biso   1.000  O
  O8       1.0000 0.28310  0.91810  0.63620  Biso   1.000  O
  O9       1.0000 0.21750  0.85280  0.63560  Biso   1.000  O
  O10      1.0000 0.13550  0.93470  0.63420  Biso   1.000  O
  C8       1.0000 0.25160  0.86730  0.88710  Biso   1.000  C
  C9       1.0000 0.24820  0.80010  0.94610  Biso   1.000  C
  C10      1.0000 0.28310  0.80990  0.04490  Biso   1.000  C
  H3       1.0000 0.30360  0.85340  0.07010  Biso   1.000  H
  C11      1.0000 0.21440  0.74110  0.90320  Biso   1.000  C
  H4       1.0000 0.19080  0.73840  0.83920  Biso   1.000  H
  C12      1.0000 0.24970  0.86720  0.61620  Biso   1.000  C
  Br3      1.0000 0.32970  0.89240  0.10670  Biso   1.000  Br
  C13      1.0000 0.31990  0.87490  0.09350  Biso   1.000  C
  Br4      1.0000 0.16360  0.73220  0.76680  Biso   1.000  Br
  C14      1.0000 0.17420  0.73440  0.79550  Biso   1.000  C
  Zn3      1.0000 0.20638  0.08733  0.70635  Biso   1.000  Zn
  O11      1.0000 0.28220  0.08130  0.92820  Biso   1.000  O
  O12      1.0000 0.21780  0.14710  0.80010  Biso   1.000  O
  O13      1.0000 0.28310  0.08190  0.63620  Biso   1.000  O
  O14      1.0000 0.21750  0.14720  0.63560  Biso   1.000  O
  O15      1.0000 0.13550  0.06530  0.63420  Biso   1.000  O
  C15      1.0000 0.25160  0.13270  0.88710  Biso   1.000  C
  C16      1.0000 0.24820  0.19990  0.94610  Biso   1.000  C
  C17      1.0000 0.28310  0.19010  0.04490  Biso   1.000  C
  H5       1.0000 0.30360  0.14660  0.07010  Biso   1.000  H
  C18      1.0000 0.21440  0.25890  0.90320  Biso   1.000  C
  H6       1.0000 0.19080  0.26160  0.83920  Biso   1.000  H
  C19      1.0000 0.24970  0.13280  0.61620  Biso   1.000  C
  Br5      1.0000 0.32970  0.10760  0.10670  Biso   1.000  Br
  C20      1.0000 0.31990  0.12510  0.09350  Biso   1.000  C
  Br6      1.0000 0.16360  0.26780  0.76680  Biso   1.000  Br
  C21      1.0000 0.17420  0.26560  0.79550  Biso   1.000  C
  Zn4      1.0000 0.29362  0.58733  0.29365  Biso   1.000  Zn
  O16      1.0000 0.21780  0.58130  0.07180  Biso   1.000  O
  O17      1.0000 0.28220  0.64710  0.19990  Biso   1.000  O
  O18      1.0000 0.21690  0.58190  0.36380  Biso   1.000  O
  O19      1.0000 0.28250  0.64720  0.36440  Biso   1.000  O
  O20      1.0000 0.36450  0.56530  0.36580  Biso   1.000  O
  C22      1.0000 0.24840  0.63270  0.11290  Biso   1.000  C
  C23      1.0000 0.25180  0.69990  0.05390  Biso   1.000  C
  C24      1.0000 0.21690  0.69010  0.95510  Biso   1.000  C
  H7       1.0000 0.19640  0.64660  0.92990  Biso   1.000  H
  C25      1.0000 0.28560  0.75890  0.09680  Biso   1.000  C
  H8       1.0000 0.30920  0.76160  0.16080  Biso   1.000  H
  C26      1.0000 0.25030  0.63280  0.38380  Biso   1.000  C
  Br7      1.0000 0.17030  0.60760  0.89330  Biso   1.000  Br
  C27      1.0000 0.18010  0.62510  0.90650  Biso   1.000  C
  Br8      1.0000 0.33640  0.76780  0.23320  Biso   1.000  Br
  C28      1.0000 0.32580  0.76560  0.20450  Biso   1.000  C
  Zn5      1.0000 0.20623  0.50000  0.11874  Biso   1.000  Zn
  Zn6      1.0000 0.20653  0.50000  0.29383  Biso   1.000  Zn
  O21      1.0000 0.25110  0.50000  0.25140  Biso   1.000  O
  O22      1.0000 0.13560  0.50000  0.06980  Biso   1.000  O
  O23      1.0000 0.13560  0.50000  0.19970  Biso   1.000  O
  C29      1.0000 0.11610  0.50000  0.11200  Biso   1.000  C
  C30      1.0000 0.38480  0.50000  0.38400  Biso   1.000  C
  Zn7      1.0000 0.29377  0.00000  0.88126  Biso   1.000  Zn
  Zn8      1.0000 0.29347  0.00000  0.70617  Biso   1.000  Zn
  O24      1.0000 0.24890  0.00000  0.74860  Biso   1.000  O
  O25      1.0000 0.36440  0.00000  0.93020  Biso   1.000  O
  O26      1.0000 0.36440  0.00000  0.80030  Biso   1.000  O
  C31      1.0000 0.38390  0.00000  0.88800  Biso   1.000  C
  C32      1.0000 0.11520  0.00000  0.61600  Biso   1.000  C
  Zn9      1.0000 0.79362  0.91267  0.29365  Biso   1.000  Zn
  O27      1.0000 0.71780  0.91870  0.07180  Biso   1.000  O
  O28      1.0000 0.78220  0.85290  0.19990  Biso   1.000  O
  O29      1.0000 0.71690  0.91810  0.36380  Biso   1.000  O
  O30      1.0000 0.78250  0.85280  0.36440  Biso   1.000  O
  O31      1.0000 0.86450  0.93470  0.36580  Biso   1.000  O
  C33      1.0000 0.74840  0.86730  0.11290  Biso   1.000  C
  C34      1.0000 0.75180  0.80010  0.05390  Biso   1.000  C
  C35      1.0000 0.71690  0.80990  0.95510  Biso   1.000  C
  H9       1.0000 0.69640  0.85340  0.92990  Biso   1.000  H
  C36      1.0000 0.78560  0.74110  0.09680  Biso   1.000  C
  H10      1.0000 0.80920  0.73840  0.16080  Biso   1.000  H
  C37      1.0000 0.75030  0.86720  0.38380  Biso   1.000  C
  Br9      1.0000 0.67030  0.89240  0.89330  Biso   1.000  Br
  C38      1.0000 0.68010  0.87490  0.90650  Biso   1.000  C
  Br10     1.0000 0.83640  0.73220  0.23320  Biso   1.000  Br
  C39      1.0000 0.82580  0.73440  0.20450  Biso   1.000  C
  Zn10     1.0000 0.70638  0.41267  0.70635  Biso   1.000  Zn
  O32      1.0000 0.78220  0.41870  0.92820  Biso   1.000  O
  O33      1.0000 0.71780  0.35290  0.80010  Biso   1.000  O
  O34      1.0000 0.78310  0.41810  0.63620  Biso   1.000  O
  O35      1.0000 0.71750  0.35280  0.63560  Biso   1.000  O
  O36      1.0000 0.63550  0.43470  0.63420  Biso   1.000  O
  C40      1.0000 0.75160  0.36730  0.88710  Biso   1.000  C
  C41      1.0000 0.74820  0.30010  0.94610  Biso   1.000  C
  C42      1.0000 0.78310  0.30990  0.04490  Biso   1.000  C
  H11      1.0000 0.80360  0.35340  0.07010  Biso   1.000  H
  C43      1.0000 0.71440  0.24110  0.90320  Biso   1.000  C
  H12      1.0000 0.69080  0.23840  0.83920  Biso   1.000  H
  C44      1.0000 0.74970  0.36720  0.61620  Biso   1.000  C
  Br11     1.0000 0.82970  0.39240  0.10670  Biso   1.000  Br
  C45      1.0000 0.81990  0.37490  0.09350  Biso   1.000  C
  Br12     1.0000 0.66360  0.23220  0.76680  Biso   1.000  Br
  C46      1.0000 0.67420  0.23440  0.79550  Biso   1.000  C
  Zn11     1.0000 0.70638  0.58733  0.70635  Biso   1.000  Zn
  O37      1.0000 0.78220  0.58130  0.92820  Biso   1.000  O
  O38      1.0000 0.71780  0.64710  0.80010  Biso   1.000  O
  O39      1.0000 0.78310  0.58190  0.63620  Biso   1.000  O
  O40      1.0000 0.71750  0.64720  0.63560  Biso   1.000  O
  O41      1.0000 0.63550  0.56530  0.63420  Biso   1.000  O
  C47      1.0000 0.75160  0.63270  0.88710  Biso   1.000  C
  C48      1.0000 0.74820  0.69990  0.94610  Biso   1.000  C
  C49      1.0000 0.78310  0.69010  0.04490  Biso   1.000  C
  H13      1.0000 0.80360  0.64660  0.07010  Biso   1.000  H
  C50      1.0000 0.71440  0.75890  0.90320  Biso   1.000  C
  H14      1.0000 0.69080  0.76160  0.83920  Biso   1.000  H
  C51      1.0000 0.74970  0.63280  0.61620  Biso   1.000  C
  Br13     1.0000 0.82970  0.60760  0.10670  Biso   1.000  Br
  C52      1.0000 0.81990  0.62510  0.09350  Biso   1.000  C
  Br14     1.0000 0.66360  0.76780  0.76680  Biso   1.000  Br
  C53      1.0000 0.67420  0.76560  0.79550  Biso   1.000  C
  Zn12     1.0000 0.79362  0.08733  0.29365  Biso   1.000  Zn
  O42      1.0000 0.71780  0.08130  0.07180  Biso   1.000  O
  O43      1.0000 0.78220  0.14710  0.19990  Biso   1.000  O
  O44      1.0000 0.71690  0.08190  0.36380  Biso   1.000  O
  O45      1.0000 0.78250  0.14720  0.36440  Biso   1.000  O
  O46      1.0000 0.86450  0.06530  0.36580  Biso   1.000  O
  C54      1.0000 0.74840  0.13270  0.11290  Biso   1.000  C
  C55      1.0000 0.75180  0.19990  0.05390  Biso   1.000  C
  C56      1.0000 0.71690  0.19010  0.95510  Biso   1.000  C
  H15      1.0000 0.69640  0.14660  0.92990  Biso   1.000  H
  C57      1.0000 0.78560  0.25890  0.09680  Biso   1.000  C
  H16      1.0000 0.80920  0.26160  0.16080  Biso   1.000  H
  C58      1.0000 0.75030  0.13280  0.38380  Biso   1.000  C
  Br15     1.0000 0.67030  0.10760  0.89330  Biso   1.000  Br
  C59      1.0000 0.68010  0.12510  0.90650  Biso   1.000  C
  Br16     1.0000 0.83640  0.26780  0.23320  Biso   1.000  Br
  C60      1.0000 0.82580  0.26560  0.20450  Biso   1.000  C
  Zn13     1.0000 0.70623  0.00000  0.11874  Biso   1.000  Zn
  Zn14     1.0000 0.70653  0.00000  0.29383  Biso   1.000  Zn
  O47      1.0000 0.75110  0.00000  0.25140  Biso   1.000  O
  O48      1.0000 0.63560  0.00000  0.06980  Biso   1.000  O
  O49      1.0000 0.63560  0.00000  0.19970  Biso   1.000  O
  C61      1.0000 0.61610  0.00000  0.11200  Biso   1.000  C
  C62      1.0000 0.88480  0.00000  0.38400  Biso   1.000  C
  Zn15     1.0000 0.79377  0.50000  0.88126  Biso   1.000  Zn
  Zn16     1.0000 0.79347  0.50000  0.70617  Biso   1.000  Zn
  O50      1.0000 0.74890  0.50000  0.74860  Biso   1.000  O
  O51      1.0000 0.86440  0.50000  0.93020  Biso   1.000  O
  O52      1.0000 0.86440  0.50000  0.80030  Biso   1.000  O
  C63      1.0000 0.88390  0.50000  0.88800  Biso   1.000  C
  C64      1.0000 0.61520  0.50000  0.61600  Biso   1.000  C
