data_image0
_cell_length_a       15.3916
_cell_length_b       15.3916
_cell_length_c       9.588
_cell_angle_alpha    90
_cell_angle_beta     90
_cell_angle_gamma    90

_symmetry_space_group_name_H-M    "P 1"
_symmetry_int_tables_number       1

loop_
  _symmetry_equiv_pos_as_xyz
  'x, y, z'

loop_
  _atom_site_label
  _atom_site_occupancy
  _atom_site_fract_x
  _atom_site_fract_y
  _atom_site_fract_z
  _atom_site_thermal_displace_type
  _atom_site_B_iso_or_equiv
  _atom_site_type_symbol
  C1       1.0000 0.31720  0.24300  0.42200  Biso   1.000  C
  C2       1.0000 0.25350  0.18850  0.38300  Biso   1.000  C
  C3       1.0000 0.68280  0.75700  0.42200  Biso   1.000  C
  C4       1.0000 0.74650  0.81150  0.38300  Biso   1.000  C
  C5       1.0000 0.75700  0.31720  0.42200  Biso   1.000  C
  C6       1.0000 0.81150  0.25350  0.38300  Biso   1.000  C
  C7       1.0000 0.24300  0.68280  0.42200  Biso   1.000  C
  C8       1.0000 0.18850  0.74650  0.38300  Biso   1.000  C
  C9       1.0000 0.68280  0.24300  0.57800  Biso   1.000  C
  C10      1.0000 0.74650  0.18850  0.61700  Biso   1.000  C
  C11      1.0000 0.31720  0.75700  0.57800  Biso   1.000  C
  C12      1.0000 0.25350  0.81150  0.61700  Biso   1.000  C
  C13      1.0000 0.24300  0.31720  0.57800  Biso   1.000  C
  C14      1.0000 0.18850  0.25350  0.61700  Biso   1.000  C
  C15      1.0000 0.75700  0.68280  0.57800  Biso   1.000  C
  C16      1.0000 0.81150  0.74650  0.61700  Biso   1.000  C
  C17      1.0000 0.68280  0.75700  0.57800  Biso   1.000  C
  C18      1.0000 0.74650  0.81150  0.61700  Biso   1.000  C
  C19      1.0000 0.31720  0.24300  0.57800  Biso   1.000  C
  C20      1.0000 0.25350  0.18850  0.61700  Biso   1.000  C
  C21      1.0000 0.24300  0.68280  0.57800  Biso   1.000  C
  C22      1.0000 0.18850  0.74650  0.61700  Biso   1.000  C
  C23      1.0000 0.75700  0.31720  0.57800  Biso   1.000  C
  C24      1.0000 0.81150  0.25350  0.61700  Biso   1.000  C
  C25      1.0000 0.31720  0.75700  0.42200  Biso   1.000  C
  C26      1.0000 0.25350  0.81150  0.38300  Biso   1.000  C
  C27      1.0000 0.68280  0.24300  0.42200  Biso   1.000  C
  C28      1.0000 0.74650  0.18850  0.38300  Biso   1.000  C
  C29      1.0000 0.75700  0.68280  0.42200  Biso   1.000  C
  C30      1.0000 0.81150  0.74650  0.38300  Biso   1.000  C
  C31      1.0000 0.24300  0.31720  0.42200  Biso   1.000  C
  C32      1.0000 0.18850  0.25350  0.38300  Biso   1.000  C
  Zn1      1.0000 0.00000  0.00000  0.34810  Biso   1.000  Zn
  N1       1.0000 0.00000  0.00000  0.13930  Biso   1.000  N
  Zn2      1.0000 0.00000  0.00000  0.65190  Biso   1.000  Zn
  N2       1.0000 0.00000  0.00000  0.86070  Biso   1.000  N
  O1       1.0000 0.09060  0.09060  0.38520  Biso   1.000  O
  O2       1.0000 0.90940  0.90940  0.38520  Biso   1.000  O
  O3       1.0000 0.90940  0.09060  0.38520  Biso   1.000  O
  O4       1.0000 0.09060  0.90940  0.38520  Biso   1.000  O
  O5       1.0000 0.90940  0.09060  0.61480  Biso   1.000  O
  O6       1.0000 0.09060  0.90940  0.61480  Biso   1.000  O
  O7       1.0000 0.09060  0.09060  0.61480  Biso   1.000  O
  O8       1.0000 0.90940  0.90940  0.61480  Biso   1.000  O
  C33      1.0000 0.30700  0.30700  0.50000  Biso   1.000  C
  C34      1.0000 0.18190  0.18190  0.50000  Biso   1.000  C
  C35      1.0000 0.11880  0.11880  0.50000  Biso   1.000  C
  C36      1.0000 0.69300  0.69300  0.50000  Biso   1.000  C
  C37      1.0000 0.81810  0.81810  0.50000  Biso   1.000  C
  C38      1.0000 0.88120  0.88120  0.50000  Biso   1.000  C
  C39      1.0000 0.69300  0.30700  0.50000  Biso   1.000  C
  C40      1.0000 0.81810  0.18190  0.50000  Biso   1.000  C
  C41      1.0000 0.88120  0.11880  0.50000  Biso   1.000  C
  C42      1.0000 0.30700  0.69300  0.50000  Biso   1.000  C
  C43      1.0000 0.18190  0.81810  0.50000  Biso   1.000  C
  C44      1.0000 0.11880  0.88120  0.50000  Biso   1.000  C
  C45      1.0000 0.08640  0.00000  0.07800  Biso   1.000  C
  C46      1.0000 0.91360  0.00000  0.07800  Biso   1.000  C
  C47      1.0000 0.00000  0.08640  0.07800  Biso   1.000  C
  C48      1.0000 0.00000  0.91360  0.07800  Biso   1.000  C
  C49      1.0000 0.91360  0.00000  0.92200  Biso   1.000  C
  C50      1.0000 0.08640  0.00000  0.92200  Biso   1.000  C
  C51      1.0000 0.00000  0.08640  0.92200  Biso   1.000  C
  C52      1.0000 0.00000  0.91360  0.92200  Biso   1.000  C
