data_image0
_cell_length_a       3.6154
_cell_length_b       21.2165
_cell_length_c       20.2666
_cell_angle_alpha    90
_cell_angle_beta     90.028
_cell_angle_gamma    90

_symmetry_space_group_name_H-M    "P 1"
_symmetry_int_tables_number       1

loop_
  _symmetry_equiv_pos_as_xyz
  'x, y, z'

loop_
  _atom_site_label
  _atom_site_occupancy
  _atom_site_fract_x
  _atom_site_fract_y
  _atom_site_fract_z
  _atom_site_thermal_displace_type
  _atom_site_B_iso_or_equiv
  _atom_site_type_symbol
  Cu1      1.0000 0.49970  0.70741  0.75227  Biso   1.000  Cu
  N1       1.0000 0.34650  0.72270  0.84070  Biso   1.000  N
  N2       1.0000 0.69400  0.78100  0.16600  Biso   1.000  N
  C1       1.0000 0.23100  0.67540  0.87880  Biso   1.000  C
  H1       1.0000 0.23770  0.63450  0.86230  Biso   1.000  H
  C2       1.0000 0.09900  0.68570  0.94280  Biso   1.000  C
  H2       1.0000 0.00590  0.65200  0.96700  Biso   1.000  H
  C3       1.0000 0.91000  0.70930  0.08350  Biso   1.000  C
  H3       1.0000 0.95690  0.66770  0.07160  Biso   1.000  H
  C4       1.0000 0.78200  0.72240  0.14550  Biso   1.000  C
  H4       1.0000 0.75350  0.68920  0.17500  Biso   1.000  H
  C5       1.0000 0.75900  0.82880  0.12210  Biso   1.000  C
  H5       1.0000 0.72130  0.87010  0.13580  Biso   1.000  H
  C6       1.0000 0.87500  0.81830  0.05930  Biso   1.000  C
  H6       1.0000 0.89200  0.85210  0.03020  Biso   1.000  H
  C7       1.0000 0.22700  0.79380  0.92960  Biso   1.000  C
  H7       1.0000 0.22420  0.83510  0.94510  Biso   1.000  H
  C8       1.0000 0.35200  0.78180  0.86660  Biso   1.000  C
  H8       1.0000 0.44230  0.81490  0.84110  Biso   1.000  H
  C9       1.0000 0.97100  0.75770  0.03730  Biso   1.000  C
  C10      1.0000 0.10440  0.74560  0.97070  Biso   1.000  C
  Cu2      1.0000 0.49970  0.79259  0.25227  Biso   1.000  Cu
  N3       1.0000 0.34650  0.77730  0.34070  Biso   1.000  N
  N4       1.0000 0.69400  0.71900  0.66600  Biso   1.000  N
  C11      1.0000 0.23100  0.82460  0.37880  Biso   1.000  C
  H9       1.0000 0.23770  0.86550  0.36230  Biso   1.000  H
  C12      1.0000 0.09900  0.81430  0.44280  Biso   1.000  C
  H10      1.0000 0.00590  0.84800  0.46700  Biso   1.000  H
  C13      1.0000 0.91000  0.79070  0.58350  Biso   1.000  C
  H11      1.0000 0.95690  0.83230  0.57160  Biso   1.000  H
  C14      1.0000 0.78200  0.77760  0.64550  Biso   1.000  C
  H12      1.0000 0.75350  0.81080  0.67500  Biso   1.000  H
  C15      1.0000 0.75900  0.67120  0.62210  Biso   1.000  C
  H13      1.0000 0.72130  0.62990  0.63580  Biso   1.000  H
  C16      1.0000 0.87500  0.68170  0.55930  Biso   1.000  C
  H14      1.0000 0.89200  0.64790  0.53020  Biso   1.000  H
  C17      1.0000 0.22700  0.70620  0.42960  Biso   1.000  C
  H15      1.0000 0.22420  0.66490  0.44510  Biso   1.000  H
  C18      1.0000 0.35200  0.71820  0.36660  Biso   1.000  C
  H16      1.0000 0.44230  0.68510  0.34110  Biso   1.000  H
  C19      1.0000 0.97100  0.74230  0.53730  Biso   1.000  C
  C20      1.0000 0.10440  0.75440  0.47070  Biso   1.000  C
  Cu3      1.0000 0.50030  0.20741  0.74773  Biso   1.000  Cu
  N5       1.0000 0.65350  0.22270  0.65930  Biso   1.000  N
  N6       1.0000 0.30600  0.28100  0.33400  Biso   1.000  N
  C21      1.0000 0.76900  0.17540  0.62120  Biso   1.000  C
  H17      1.0000 0.76230  0.13450  0.63770  Biso   1.000  H
  C22      1.0000 0.90100  0.18570  0.55720  Biso   1.000  C
  H18      1.0000 0.99410  0.15200  0.53300  Biso   1.000  H
  C23      1.0000 0.09000  0.20930  0.41650  Biso   1.000  C
  H19      1.0000 0.04310  0.16770  0.42840  Biso   1.000  H
  C24      1.0000 0.21800  0.22240  0.35450  Biso   1.000  C
  H20      1.0000 0.24650  0.18920  0.32500  Biso   1.000  H
  C25      1.0000 0.24100  0.32880  0.37790  Biso   1.000  C
  H21      1.0000 0.27870  0.37010  0.36420  Biso   1.000  H
  C26      1.0000 0.12500  0.31830  0.44070  Biso   1.000  C
  H22      1.0000 0.10800  0.35210  0.46980  Biso   1.000  H
  C27      1.0000 0.77300  0.29380  0.57040  Biso   1.000  C
  H23      1.0000 0.77580  0.33510  0.55490  Biso   1.000  H
  C28      1.0000 0.64800  0.28180  0.63340  Biso   1.000  C
  H24      1.0000 0.55770  0.31490  0.65890  Biso   1.000  H
  C29      1.0000 0.02900  0.25770  0.46270  Biso   1.000  C
  C30      1.0000 0.89560  0.24560  0.52930  Biso   1.000  C
  Cu4      1.0000 0.50030  0.29259  0.24773  Biso   1.000  Cu
  N7       1.0000 0.65350  0.27730  0.15930  Biso   1.000  N
  N8       1.0000 0.30600  0.21900  0.83400  Biso   1.000  N
  C31      1.0000 0.76900  0.32460  0.12120  Biso   1.000  C
  H25      1.0000 0.76230  0.36550  0.13770  Biso   1.000  H
  C32      1.0000 0.90100  0.31430  0.05720  Biso   1.000  C
  H26      1.0000 0.99410  0.34800  0.03300  Biso   1.000  H
  C33      1.0000 0.09000  0.29070  0.91650  Biso   1.000  C
  H27      1.0000 0.04310  0.33230  0.92840  Biso   1.000  H
  C34      1.0000 0.21800  0.27760  0.85450  Biso   1.000  C
  H28      1.0000 0.24650  0.31080  0.82500  Biso   1.000  H
  C35      1.0000 0.24100  0.17120  0.87790  Biso   1.000  C
  H29      1.0000 0.27870  0.12990  0.86420  Biso   1.000  H
  C36      1.0000 0.12500  0.18170  0.94070  Biso   1.000  C
  H30      1.0000 0.10800  0.14790  0.96980  Biso   1.000  H
  C37      1.0000 0.77300  0.20620  0.07040  Biso   1.000  C
  H31      1.0000 0.77580  0.16490  0.05490  Biso   1.000  H
  C38      1.0000 0.64800  0.21820  0.13340  Biso   1.000  C
  H32      1.0000 0.55770  0.18510  0.15890  Biso   1.000  H
  C39      1.0000 0.02900  0.24230  0.96270  Biso   1.000  C
  C40      1.0000 0.89560  0.25440  0.02930  Biso   1.000  C
