data_image0
_cell_length_a       10.8077
_cell_length_b       14.8109
_cell_length_c       20.33
_cell_angle_alpha    94.016
_cell_angle_beta     92.267
_cell_angle_gamma    109.779

_symmetry_space_group_name_H-M    "P 1"
_symmetry_int_tables_number       1

loop_
  _symmetry_equiv_pos_as_xyz
  'x, y, z'

loop_
  _atom_site_label
  _atom_site_occupancy
  _atom_site_fract_x
  _atom_site_fract_y
  _atom_site_fract_z
  _atom_site_thermal_displace_type
  _atom_site_B_iso_or_equiv
  _atom_site_type_symbol
  Cd1      1.0000 0.69487  0.60868  0.33275  Biso   1.000  Cd
  Cd2      1.0000 0.80919  0.87519  0.31828  Biso   1.000  Cd
  O1       1.0000 0.60080  0.75400  0.32050  Biso   1.000  O
  O2       1.0000 0.47550  0.60320  0.32770  Biso   1.000  O
  O3       1.0000 0.02670  0.87830  0.31900  Biso   1.000  O
  O4       1.0000 0.90550  0.72880  0.33440  Biso   1.000  O
  O5       1.0000 0.85060  0.60010  0.68790  Biso   1.000  O
  O6       1.0000 0.50330  0.61860  0.98580  Biso   1.000  O
  O7       1.0000 0.65990  0.90920  0.66730  Biso   1.000  O
  O8       1.0000 0.01300  0.89900  0.98150  Biso   1.000  O
  N1       1.0000 0.69570  0.62510  0.44480  Biso   1.000  N
  N2       1.0000 0.66170  0.62090  0.65060  Biso   1.000  N
  H1       1.0000 0.58890  0.62860  0.66360  Biso   1.000  H
  N3       1.0000 0.71010  0.62100  0.01640  Biso   1.000  N
  H2       1.0000 0.78710  0.62640  0.00110  Biso   1.000  H
  N4       1.0000 0.69940  0.60610  0.22150  Biso   1.000  N
  N5       1.0000 0.81480  0.88000  0.43000  Biso   1.000  N
  N6       1.0000 0.84860  0.88910  0.63680  Biso   1.000  N
  H3       1.0000 0.92190  0.88250  0.65230  Biso   1.000  H
  N7       1.0000 0.79600  0.86820  0.99960  Biso   1.000  N
  H4       1.0000 0.71790  0.86180  0.98150  Biso   1.000  H
  N8       1.0000 0.80590  0.85990  0.20640  Biso   1.000  N
  C1       1.0000 0.48960  0.69040  0.32480  Biso   1.000  C
  C2       1.0000 0.36900  0.71880  0.32750  Biso   1.000  C
  C3       1.0000 0.37480  0.81190  0.31980  Biso   1.000  C
  H5       1.0000 0.45700  0.86000  0.31390  Biso   1.000  H
  C4       1.0000 0.25950  0.83620  0.32060  Biso   1.000  C
  H6       1.0000 0.26460  0.90070  0.31580  Biso   1.000  H
  C5       1.0000 0.13840  0.76630  0.32840  Biso   1.000  C
  C6       1.0000 0.13430  0.67410  0.33730  Biso   1.000  C
  H7       1.0000 0.05240  0.62610  0.34380  Biso   1.000  H
  C7       1.0000 0.24810  0.64990  0.33700  Biso   1.000  C
  H8       1.0000 0.24300  0.58590  0.34340  Biso   1.000  H
  C8       1.0000 0.01480  0.79270  0.32730  Biso   1.000  C
  C9       1.0000 0.58940  0.62850  0.47510  Biso   1.000  C
  H9       1.0000 0.51670  0.63130  0.44850  Biso   1.000  H
  C10      1.0000 0.57880  0.62820  0.54230  Biso   1.000  C
  H10      1.0000 0.50080  0.63180  0.56050  Biso   1.000  H
  C11      1.0000 0.67960  0.62270  0.58350  Biso   1.000  C
  C12      1.0000 0.79160  0.62010  0.55310  Biso   1.000  C
  H11      1.0000 0.86570  0.61780  0.57870  Biso   1.000  H
  C13      1.0000 0.79410  0.62090  0.48560  Biso   1.000  C
  H12      1.0000 0.87160  0.61830  0.46620  Biso   1.000  H
  C14      1.0000 0.74530  0.60840  0.69920  Biso   1.000  C
  C15      1.0000 0.70130  0.60880  0.76800  Biso   1.000  C
  C16      1.0000 0.75270  0.56170  0.81210  Biso   1.000  C
  H13      1.0000 0.80740  0.52700  0.79720  Biso   1.000  H
  C17      1.0000 0.72480  0.56520  0.87780  Biso   1.000  C
  H14      1.0000 0.76020  0.53260  0.90790  Biso   1.000  H
  C18      1.0000 0.64440  0.61630  0.90040  Biso   1.000  C
  C19      1.0000 0.59020  0.66050  0.85560  Biso   1.000  C
  H15      1.0000 0.53300  0.69320  0.87020  Biso   1.000  H
  C20      1.0000 0.61740  0.65790  0.79030  Biso   1.000  C
  H16      1.0000 0.57980  0.68920  0.76010  Biso   1.000  H
  C21      1.0000 0.61070  0.61850  0.97060  Biso   1.000  C
  C22      1.0000 0.70070  0.61570  0.08460  Biso   1.000  C
  C23      1.0000 0.81400  0.62470  0.12290  Biso   1.000  C
  H17      1.0000 0.89490  0.63450  0.10290  Biso   1.000  H
  C24      1.0000 0.80880  0.61930  0.19000  Biso   1.000  C
  H18      1.0000 0.88750  0.62530  0.21520  Biso   1.000  H
  C25      1.0000 0.59020  0.59620  0.18350  Biso   1.000  C
  H19      1.0000 0.51010  0.58500  0.20460  Biso   1.000  H
  C26      1.0000 0.58670  0.60110  0.11620  Biso   1.000  C
  H20      1.0000 0.50660  0.59440  0.09200  Biso   1.000  H
  C27      1.0000 0.92350  0.87910  0.46470  Biso   1.000  C
  H21      1.0000 0.99620  0.87640  0.44100  Biso   1.000  H
  C28      1.0000 0.93490  0.88190  0.53210  Biso   1.000  C
  H22      1.0000 0.01360  0.88040  0.55380  Biso   1.000  H
  C29      1.0000 0.83080  0.88700  0.56920  Biso   1.000  C
  C30      1.0000 0.72170  0.88990  0.53410  Biso   1.000  C
  H23      1.0000 0.64860  0.89490  0.55660  Biso   1.000  H
  C31      1.0000 0.71800  0.88550  0.46650  Biso   1.000  C
  H24      1.0000 0.63990  0.88650  0.44390  Biso   1.000  H
  C32      1.0000 0.76510  0.90030  0.68170  Biso   1.000  C
  C33      1.0000 0.80600  0.89750  0.75310  Biso   1.000  C
  C34      1.0000 0.89830  0.85580  0.77320  Biso   1.000  C
  H25      1.0000 0.94180  0.83010  0.74110  Biso   1.000  H
  C35      1.0000 0.92620  0.85210  0.84000  Biso   1.000  C
  H26      1.0000 0.99160  0.82630  0.85340  Biso   1.000  H
  C36      1.0000 0.85950  0.88570  0.88760  Biso   1.000  C
  C37      1.0000 0.76780  0.92640  0.86700  Biso   1.000  C
  H27      1.0000 0.72240  0.95080  0.89880  Biso   1.000  H
  C38      1.0000 0.74200  0.93160  0.80070  Biso   1.000  C
  H28      1.0000 0.67850  0.95930  0.78760  Biso   1.000  H
  C39      1.0000 0.89420  0.87920  0.95730  Biso   1.000  C
  C40      1.0000 0.80450  0.86580  0.06770  Biso   1.000  C
  C41      1.0000 0.92100  0.88000  0.10660  Biso   1.000  C
  H29      1.0000 0.00220  0.89100  0.08670  Biso   1.000  H
  C42      1.0000 0.91560  0.87780  0.17340  Biso   1.000  C
  H30      1.0000 0.99620  0.88980  0.19870  Biso   1.000  H
  C43      1.0000 0.69490  0.84370  0.16820  Biso   1.000  C
  H31      1.0000 0.61440  0.82960  0.18930  Biso   1.000  H
  C44      1.0000 0.68990  0.84620  0.10110  Biso   1.000  C
  H32      1.0000 0.60780  0.83450  0.07720  Biso   1.000  H
  O9       1.0000 0.99000  0.85500  0.96890  Biso   1.000  O
  Cd3      1.0000 0.30513  0.39132  0.66725  Biso   1.000  Cd
  Cd4      1.0000 0.19081  0.12481  0.68172  Biso   1.000  Cd
  O10      1.0000 0.39920  0.24600  0.67950  Biso   1.000  O
  O11      1.0000 0.52450  0.39680  0.67230  Biso   1.000  O
  O12      1.0000 0.97330  0.12170  0.68100  Biso   1.000  O
  O13      1.0000 0.09450  0.27120  0.66560  Biso   1.000  O
  O14      1.0000 0.14940  0.39990  0.31210  Biso   1.000  O
  O15      1.0000 0.49670  0.38140  0.01420  Biso   1.000  O
  O16      1.0000 0.34010  0.09080  0.33270  Biso   1.000  O
  O17      1.0000 0.98700  0.10100  0.01850  Biso   1.000  O
  N9       1.0000 0.30430  0.37490  0.55520  Biso   1.000  N
  N10      1.0000 0.33830  0.37910  0.34940  Biso   1.000  N
  H33      1.0000 0.41110  0.37140  0.33640  Biso   1.000  H
  N11      1.0000 0.28990  0.37900  0.98360  Biso   1.000  N
  H34      1.0000 0.21290  0.37360  0.99890  Biso   1.000  H
  N12      1.0000 0.30060  0.39390  0.77850  Biso   1.000  N
  N13      1.0000 0.18520  0.12000  0.57000  Biso   1.000  N
  N14      1.0000 0.15140  0.11090  0.36320  Biso   1.000  N
  H35      1.0000 0.07810  0.11750  0.34770  Biso   1.000  H
  N15      1.0000 0.20400  0.13180  0.00040  Biso   1.000  N
  H36      1.0000 0.28210  0.13820  0.01850  Biso   1.000  H
  N16      1.0000 0.19410  0.14010  0.79360  Biso   1.000  N
  C45      1.0000 0.51040  0.30960  0.67520  Biso   1.000  C
  C46      1.0000 0.63100  0.28120  0.67250  Biso   1.000  C
  C47      1.0000 0.62520  0.18810  0.68020  Biso   1.000  C
  H37      1.0000 0.54300  0.14000  0.68610  Biso   1.000  H
  C48      1.0000 0.74050  0.16380  0.67940  Biso   1.000  C
  H38      1.0000 0.73540  0.09930  0.68420  Biso   1.000  H
  C49      1.0000 0.86160  0.23370  0.67160  Biso   1.000  C
  C50      1.0000 0.86570  0.32590  0.66270  Biso   1.000  C
  H39      1.0000 0.94760  0.37390  0.65620  Biso   1.000  H
  C51      1.0000 0.75190  0.35010  0.66300  Biso   1.000  C
  H40      1.0000 0.75700  0.41410  0.65660  Biso   1.000  H
  C52      1.0000 0.98520  0.20730  0.67270  Biso   1.000  C
  C53      1.0000 0.41060  0.37150  0.52490  Biso   1.000  C
  H41      1.0000 0.48330  0.36870  0.55150  Biso   1.000  H
  C54      1.0000 0.42120  0.37180  0.45770  Biso   1.000  C
  H42      1.0000 0.49920  0.36820  0.43950  Biso   1.000  H
  C55      1.0000 0.32040  0.37730  0.41650  Biso   1.000  C
  C56      1.0000 0.20840  0.37990  0.44690  Biso   1.000  C
  H43      1.0000 0.13430  0.38220  0.42130  Biso   1.000  H
  C57      1.0000 0.20590  0.37910  0.51440  Biso   1.000  C
  H44      1.0000 0.12840  0.38170  0.53380  Biso   1.000  H
  C58      1.0000 0.25470  0.39160  0.30080  Biso   1.000  C
  C59      1.0000 0.29870  0.39120  0.23200  Biso   1.000  C
  C60      1.0000 0.24730  0.43830  0.18790  Biso   1.000  C
  H45      1.0000 0.19260  0.47300  0.20280  Biso   1.000  H
  C61      1.0000 0.27520  0.43480  0.12220  Biso   1.000  C
  H46      1.0000 0.23980  0.46740  0.09210  Biso   1.000  H
  C62      1.0000 0.35560  0.38370  0.09960  Biso   1.000  C
  C63      1.0000 0.40980  0.33950  0.14440  Biso   1.000  C
  H47      1.0000 0.46700  0.30680  0.12980  Biso   1.000  H
  C64      1.0000 0.38260  0.34210  0.20970  Biso   1.000  C
  H48      1.0000 0.42020  0.31080  0.23990  Biso   1.000  H
  C65      1.0000 0.38930  0.38150  0.02940  Biso   1.000  C
  C66      1.0000 0.29930  0.38430  0.91540  Biso   1.000  C
  C67      1.0000 0.18600  0.37530  0.87710  Biso   1.000  C
  H49      1.0000 0.10510  0.36550  0.89710  Biso   1.000  H
  C68      1.0000 0.19120  0.38070  0.81000  Biso   1.000  C
  H50      1.0000 0.11250  0.37470  0.78480  Biso   1.000  H
  C69      1.0000 0.40980  0.40380  0.81650  Biso   1.000  C
  H51      1.0000 0.48990  0.41500  0.79540  Biso   1.000  H
  C70      1.0000 0.41330  0.39890  0.88380  Biso   1.000  C
  H52      1.0000 0.49340  0.40560  0.90800  Biso   1.000  H
  C71      1.0000 0.07650  0.12090  0.53530  Biso   1.000  C
  H53      1.0000 0.00380  0.12360  0.55900  Biso   1.000  H
  C72      1.0000 0.06510  0.11810  0.46790  Biso   1.000  C
  H54      1.0000 0.98640  0.11960  0.44620  Biso   1.000  H
  C73      1.0000 0.16920  0.11300  0.43080  Biso   1.000  C
  C74      1.0000 0.27830  0.11010  0.46590  Biso   1.000  C
  H55      1.0000 0.35140  0.10510  0.44340  Biso   1.000  H
  C75      1.0000 0.28200  0.11450  0.53350  Biso   1.000  C
  H56      1.0000 0.36010  0.11350  0.55610  Biso   1.000  H
  C76      1.0000 0.23490  0.09970  0.31830  Biso   1.000  C
  C77      1.0000 0.19400  0.10250  0.24690  Biso   1.000  C
  C78      1.0000 0.10170  0.14420  0.22680  Biso   1.000  C
  H57      1.0000 0.05820  0.16990  0.25890  Biso   1.000  H
  C79      1.0000 0.07380  0.14790  0.16000  Biso   1.000  C
  H58      1.0000 0.00840  0.17370  0.14660  Biso   1.000  H
  C80      1.0000 0.14050  0.11430  0.11240  Biso   1.000  C
  C81      1.0000 0.23220  0.07360  0.13300  Biso   1.000  C
  H59      1.0000 0.27760  0.04920  0.10120  Biso   1.000  H
  C82      1.0000 0.25800  0.06840  0.19930  Biso   1.000  C
  H60      1.0000 0.32150  0.04070  0.21240  Biso   1.000  H
  C83      1.0000 0.10580  0.12080  0.04270  Biso   1.000  C
  C84      1.0000 0.19550  0.13420  0.93230  Biso   1.000  C
  C85      1.0000 0.07900  0.12000  0.89340  Biso   1.000  C
  H61      1.0000 0.99780  0.10900  0.91330  Biso   1.000  H
  C86      1.0000 0.08440  0.12220  0.82660  Biso   1.000  C
  H62      1.0000 0.00380  0.11020  0.80130  Biso   1.000  H
  C87      1.0000 0.30510  0.15630  0.83180  Biso   1.000  C
  H63      1.0000 0.38560  0.17040  0.81070  Biso   1.000  H
  C88      1.0000 0.31010  0.15380  0.89890  Biso   1.000  C
  H64      1.0000 0.39220  0.16550  0.92280  Biso   1.000  H
  O18      1.0000 0.01000  0.14500  0.03110  Biso   1.000  O
