data_image0
_cell_length_a       23.539
_cell_length_b       13.8679
_cell_length_c       11.7781
_cell_angle_alpha    90
_cell_angle_beta     109.338
_cell_angle_gamma    90

_symmetry_space_group_name_H-M    "P 1"
_symmetry_int_tables_number       1

loop_
  _symmetry_equiv_pos_as_xyz
  'x, y, z'

loop_
  _atom_site_label
  _atom_site_occupancy
  _atom_site_fract_x
  _atom_site_fract_y
  _atom_site_fract_z
  _atom_site_thermal_displace_type
  _atom_site_B_iso_or_equiv
  _atom_site_type_symbol
  Ag1      1.0000 0.41207  0.91727  0.73463  Biso   1.000  Ag
  N1       1.0000 0.37380  0.00773  0.56860  Biso   1.000  N
  N2       1.0000 0.32628  0.15758  0.50440  Biso   1.000  N
  N3       1.0000 0.39161  0.09163  0.40700  Biso   1.000  N
  N4       1.0000 0.43116  0.94050  0.46560  Biso   1.000  N
  H1       1.0000 0.44630  0.94200  0.41500  Biso   1.000  H
  H2       1.0000 0.42710  0.89010  0.49300  Biso   1.000  H
  N5       1.0000 0.35103  0.24410  0.36130  Biso   1.000  N
  H3       1.0000 0.36680  0.25400  0.31300  Biso   1.000  H
  H4       1.0000 0.33630  0.28900  0.38100  Biso   1.000  H
  C1       1.0000 0.39830  0.01430  0.47920  Biso   1.000  C
  C2       1.0000 0.35736  0.16400  0.42510  Biso   1.000  C
  C3       1.0000 0.33699  0.07919  0.57450  Biso   1.000  C
  C4       1.0000 0.30441  0.07010  0.66200  Biso   1.000  C
  C5       1.0000 0.27495  0.98340  0.66760  Biso   1.000  C
  H5       1.0000 0.27690  0.93080  0.61740  Biso   1.000  H
  C6       1.0000 0.24278  0.97500  0.74730  Biso   1.000  C
  H6       1.0000 0.22210  0.91670  0.75070  Biso   1.000  H
  C7       1.0000 0.24082  0.05160  0.82210  Biso   1.000  C
  H7       1.0000 0.21890  0.04540  0.87640  Biso   1.000  H
  C8       1.0000 0.27083  0.13760  0.81810  Biso   1.000  C
  H8       1.0000 0.26980  0.18940  0.87020  Biso   1.000  H
  C9       1.0000 0.30238  0.14730  0.73700  Biso   1.000  C
  H9       1.0000 0.32240  0.20600  0.73290  Biso   1.000  H
  Ag2      1.0000 0.08793  0.41727  0.76537  Biso   1.000  Ag
  N6       1.0000 0.12620  0.50773  0.93140  Biso   1.000  N
  N7       1.0000 0.17372  0.65758  0.99560  Biso   1.000  N
  N8       1.0000 0.10839  0.59163  0.09300  Biso   1.000  N
  N9       1.0000 0.06884  0.44050  0.03440  Biso   1.000  N
  H10      1.0000 0.05370  0.44200  0.08500  Biso   1.000  H
  H11      1.0000 0.07290  0.39010  0.00700  Biso   1.000  H
  N10      1.0000 0.14897  0.74410  0.13870  Biso   1.000  N
  H12      1.0000 0.13320  0.75400  0.18700  Biso   1.000  H
  H13      1.0000 0.16370  0.78900  0.11900  Biso   1.000  H
  C10      1.0000 0.10170  0.51430  0.02080  Biso   1.000  C
  C11      1.0000 0.14264  0.66400  0.07490  Biso   1.000  C
  C12      1.0000 0.16301  0.57919  0.92550  Biso   1.000  C
  C13      1.0000 0.19559  0.57010  0.83800  Biso   1.000  C
  C14      1.0000 0.22505  0.48340  0.83240  Biso   1.000  C
  H14      1.0000 0.22310  0.43080  0.88260  Biso   1.000  H
  C15      1.0000 0.25722  0.47500  0.75270  Biso   1.000  C
  H15      1.0000 0.27790  0.41670  0.74930  Biso   1.000  H
  C16      1.0000 0.25918  0.55160  0.67790  Biso   1.000  C
  H16      1.0000 0.28110  0.54540  0.62360  Biso   1.000  H
  C17      1.0000 0.22917  0.63760  0.68190  Biso   1.000  C
  H17      1.0000 0.23020  0.68940  0.62980  Biso   1.000  H
  C18      1.0000 0.19762  0.64730  0.76300  Biso   1.000  C
  H18      1.0000 0.17760  0.70600  0.76710  Biso   1.000  H
  Ag3      1.0000 0.08793  0.58273  0.26537  Biso   1.000  Ag
  N11      1.0000 0.12620  0.49227  0.43140  Biso   1.000  N
  N12      1.0000 0.17372  0.34242  0.49560  Biso   1.000  N
  N13      1.0000 0.10839  0.40837  0.59300  Biso   1.000  N
  N14      1.0000 0.06884  0.55950  0.53440  Biso   1.000  N
  H19      1.0000 0.05370  0.55800  0.58500  Biso   1.000  H
  H20      1.0000 0.07290  0.60990  0.50700  Biso   1.000  H
  N15      1.0000 0.14897  0.25590  0.63870  Biso   1.000  N
  H21      1.0000 0.13320  0.24600  0.68700  Biso   1.000  H
  H22      1.0000 0.16370  0.21100  0.61900  Biso   1.000  H
  C19      1.0000 0.10170  0.48570  0.52080  Biso   1.000  C
  C20      1.0000 0.14264  0.33600  0.57490  Biso   1.000  C
  C21      1.0000 0.16301  0.42081  0.42550  Biso   1.000  C
  C22      1.0000 0.19559  0.42990  0.33800  Biso   1.000  C
  C23      1.0000 0.22505  0.51660  0.33240  Biso   1.000  C
  H23      1.0000 0.22310  0.56920  0.38260  Biso   1.000  H
  C24      1.0000 0.25722  0.52500  0.25270  Biso   1.000  C
  H24      1.0000 0.27790  0.58330  0.24930  Biso   1.000  H
  C25      1.0000 0.25918  0.44840  0.17790  Biso   1.000  C
  H25      1.0000 0.28110  0.45460  0.12360  Biso   1.000  H
  C26      1.0000 0.22917  0.36240  0.18190  Biso   1.000  C
  H26      1.0000 0.23020  0.31060  0.12980  Biso   1.000  H
  C27      1.0000 0.19762  0.35270  0.26300  Biso   1.000  C
  H27      1.0000 0.17760  0.29400  0.26710  Biso   1.000  H
  Ag4      1.0000 0.41207  0.08273  0.23463  Biso   1.000  Ag
  N16      1.0000 0.37380  0.99227  0.06860  Biso   1.000  N
  N17      1.0000 0.32628  0.84242  0.00440  Biso   1.000  N
  N18      1.0000 0.39161  0.90837  0.90700  Biso   1.000  N
  N19      1.0000 0.43116  0.05950  0.96560  Biso   1.000  N
  H28      1.0000 0.44630  0.05800  0.91500  Biso   1.000  H
  H29      1.0000 0.42710  0.10990  0.99300  Biso   1.000  H
  N20      1.0000 0.35103  0.75590  0.86130  Biso   1.000  N
  H30      1.0000 0.36680  0.74600  0.81300  Biso   1.000  H
  H31      1.0000 0.33630  0.71100  0.88100  Biso   1.000  H
  C28      1.0000 0.39830  0.98570  0.97920  Biso   1.000  C
  C29      1.0000 0.35736  0.83600  0.92510  Biso   1.000  C
  C30      1.0000 0.33699  0.92081  0.07450  Biso   1.000  C
  C31      1.0000 0.30441  0.92990  0.16200  Biso   1.000  C
  C32      1.0000 0.27495  0.01660  0.16760  Biso   1.000  C
  H32      1.0000 0.27690  0.06920  0.11740  Biso   1.000  H
  C33      1.0000 0.24278  0.02500  0.24730  Biso   1.000  C
  H33      1.0000 0.22210  0.08330  0.25070  Biso   1.000  H
  C34      1.0000 0.24082  0.94840  0.32210  Biso   1.000  C
  H34      1.0000 0.21890  0.95460  0.37640  Biso   1.000  H
  C35      1.0000 0.27083  0.86240  0.31810  Biso   1.000  C
  H35      1.0000 0.26980  0.81060  0.37020  Biso   1.000  H
  C36      1.0000 0.30238  0.85270  0.23700  Biso   1.000  C
  H36      1.0000 0.32240  0.79400  0.23290  Biso   1.000  H
  Ag5      1.0000 0.25000  0.25000  0.50000  Biso   1.000  Ag
  Ag6      1.0000 0.25000  0.75000  0.00000  Biso   1.000  Ag
  Ag7      1.0000 0.91207  0.41727  0.73463  Biso   1.000  Ag
  N21      1.0000 0.87380  0.50773  0.56860  Biso   1.000  N
  N22      1.0000 0.82628  0.65758  0.50440  Biso   1.000  N
  N23      1.0000 0.89161  0.59163  0.40700  Biso   1.000  N
  N24      1.0000 0.93116  0.44050  0.46560  Biso   1.000  N
  H37      1.0000 0.94630  0.44200  0.41500  Biso   1.000  H
  H38      1.0000 0.92710  0.39010  0.49300  Biso   1.000  H
  N25      1.0000 0.85103  0.74410  0.36130  Biso   1.000  N
  H39      1.0000 0.86680  0.75400  0.31300  Biso   1.000  H
  H40      1.0000 0.83630  0.78900  0.38100  Biso   1.000  H
  C37      1.0000 0.89830  0.51430  0.47920  Biso   1.000  C
  C38      1.0000 0.85736  0.66400  0.42510  Biso   1.000  C
  C39      1.0000 0.83699  0.57919  0.57450  Biso   1.000  C
  C40      1.0000 0.80441  0.57010  0.66200  Biso   1.000  C
  C41      1.0000 0.77495  0.48340  0.66760  Biso   1.000  C
  H41      1.0000 0.77690  0.43080  0.61740  Biso   1.000  H
  C42      1.0000 0.74278  0.47500  0.74730  Biso   1.000  C
  H42      1.0000 0.72210  0.41670  0.75070  Biso   1.000  H
  C43      1.0000 0.74082  0.55160  0.82210  Biso   1.000  C
  H43      1.0000 0.71890  0.54540  0.87640  Biso   1.000  H
  C44      1.0000 0.77083  0.63760  0.81810  Biso   1.000  C
  H44      1.0000 0.76980  0.68940  0.87020  Biso   1.000  H
  C45      1.0000 0.80238  0.64730  0.73700  Biso   1.000  C
  H45      1.0000 0.82240  0.70600  0.73290  Biso   1.000  H
  Ag8      1.0000 0.58793  0.91727  0.76537  Biso   1.000  Ag
  N26      1.0000 0.62620  0.00773  0.93140  Biso   1.000  N
  N27      1.0000 0.67372  0.15758  0.99560  Biso   1.000  N
  N28      1.0000 0.60839  0.09163  0.09300  Biso   1.000  N
  N29      1.0000 0.56884  0.94050  0.03440  Biso   1.000  N
  H46      1.0000 0.55370  0.94200  0.08500  Biso   1.000  H
  H47      1.0000 0.57290  0.89010  0.00700  Biso   1.000  H
  N30      1.0000 0.64897  0.24410  0.13870  Biso   1.000  N
  H48      1.0000 0.63320  0.25400  0.18700  Biso   1.000  H
  H49      1.0000 0.66370  0.28900  0.11900  Biso   1.000  H
  C46      1.0000 0.60170  0.01430  0.02080  Biso   1.000  C
  C47      1.0000 0.64264  0.16400  0.07490  Biso   1.000  C
  C48      1.0000 0.66301  0.07919  0.92550  Biso   1.000  C
  C49      1.0000 0.69559  0.07010  0.83800  Biso   1.000  C
  C50      1.0000 0.72505  0.98340  0.83240  Biso   1.000  C
  H50      1.0000 0.72310  0.93080  0.88260  Biso   1.000  H
  C51      1.0000 0.75722  0.97500  0.75270  Biso   1.000  C
  H51      1.0000 0.77790  0.91670  0.74930  Biso   1.000  H
  C52      1.0000 0.75918  0.05160  0.67790  Biso   1.000  C
  H52      1.0000 0.78110  0.04540  0.62360  Biso   1.000  H
  C53      1.0000 0.72917  0.13760  0.68190  Biso   1.000  C
  H53      1.0000 0.73020  0.18940  0.62980  Biso   1.000  H
  C54      1.0000 0.69762  0.14730  0.76300  Biso   1.000  C
  H54      1.0000 0.67760  0.20600  0.76710  Biso   1.000  H
  Ag9      1.0000 0.58793  0.08273  0.26537  Biso   1.000  Ag
  N31      1.0000 0.62620  0.99227  0.43140  Biso   1.000  N
  N32      1.0000 0.67372  0.84242  0.49560  Biso   1.000  N
  N33      1.0000 0.60839  0.90837  0.59300  Biso   1.000  N
  N34      1.0000 0.56884  0.05950  0.53440  Biso   1.000  N
  H55      1.0000 0.55370  0.05800  0.58500  Biso   1.000  H
  H56      1.0000 0.57290  0.10990  0.50700  Biso   1.000  H
  N35      1.0000 0.64897  0.75590  0.63870  Biso   1.000  N
  H57      1.0000 0.63320  0.74600  0.68700  Biso   1.000  H
  H58      1.0000 0.66370  0.71100  0.61900  Biso   1.000  H
  C55      1.0000 0.60170  0.98570  0.52080  Biso   1.000  C
  C56      1.0000 0.64264  0.83600  0.57490  Biso   1.000  C
  C57      1.0000 0.66301  0.92081  0.42550  Biso   1.000  C
  C58      1.0000 0.69559  0.92990  0.33800  Biso   1.000  C
  C59      1.0000 0.72505  0.01660  0.33240  Biso   1.000  C
  H59      1.0000 0.72310  0.06920  0.38260  Biso   1.000  H
  C60      1.0000 0.75722  0.02500  0.25270  Biso   1.000  C
  H60      1.0000 0.77790  0.08330  0.24930  Biso   1.000  H
  C61      1.0000 0.75918  0.94840  0.17790  Biso   1.000  C
  H61      1.0000 0.78110  0.95460  0.12360  Biso   1.000  H
  C62      1.0000 0.72917  0.86240  0.18190  Biso   1.000  C
  H62      1.0000 0.73020  0.81060  0.12980  Biso   1.000  H
  C63      1.0000 0.69762  0.85270  0.26300  Biso   1.000  C
  H63      1.0000 0.67760  0.79400  0.26710  Biso   1.000  H
  Ag10     1.0000 0.91207  0.58273  0.23463  Biso   1.000  Ag
  N36      1.0000 0.87380  0.49227  0.06860  Biso   1.000  N
  N37      1.0000 0.82628  0.34242  0.00440  Biso   1.000  N
  N38      1.0000 0.89161  0.40837  0.90700  Biso   1.000  N
  N39      1.0000 0.93116  0.55950  0.96560  Biso   1.000  N
  H64      1.0000 0.94630  0.55800  0.91500  Biso   1.000  H
  H65      1.0000 0.92710  0.60990  0.99300  Biso   1.000  H
  N40      1.0000 0.85103  0.25590  0.86130  Biso   1.000  N
  H66      1.0000 0.86680  0.24600  0.81300  Biso   1.000  H
  H67      1.0000 0.83630  0.21100  0.88100  Biso   1.000  H
  C64      1.0000 0.89830  0.48570  0.97920  Biso   1.000  C
  C65      1.0000 0.85736  0.33600  0.92510  Biso   1.000  C
  C66      1.0000 0.83699  0.42081  0.07450  Biso   1.000  C
  C67      1.0000 0.80441  0.42990  0.16200  Biso   1.000  C
  C68      1.0000 0.77495  0.51660  0.16760  Biso   1.000  C
  H68      1.0000 0.77690  0.56920  0.11740  Biso   1.000  H
  C69      1.0000 0.74278  0.52500  0.24730  Biso   1.000  C
  H69      1.0000 0.72210  0.58330  0.25070  Biso   1.000  H
  C70      1.0000 0.74082  0.44840  0.32210  Biso   1.000  C
  H70      1.0000 0.71890  0.45460  0.37640  Biso   1.000  H
  C71      1.0000 0.77083  0.36240  0.31810  Biso   1.000  C
  H71      1.0000 0.76980  0.31060  0.37020  Biso   1.000  H
  C72      1.0000 0.80238  0.35270  0.23700  Biso   1.000  C
  H72      1.0000 0.82240  0.29400  0.23290  Biso   1.000  H
  Ag11     1.0000 0.75000  0.25000  0.00000  Biso   1.000  Ag
  Ag12     1.0000 0.75000  0.75000  0.50000  Biso   1.000  Ag
