data_image0
_cell_length_a       18.5491
_cell_length_b       10.2932
_cell_length_c       12.0723
_cell_angle_alpha    90
_cell_angle_beta     90
_cell_angle_gamma    90

_symmetry_space_group_name_H-M    "P 1"
_symmetry_int_tables_number       1

loop_
  _symmetry_equiv_pos_as_xyz
  'x, y, z'

loop_
  _atom_site_label
  _atom_site_occupancy
  _atom_site_fract_x
  _atom_site_fract_y
  _atom_site_fract_z
  _atom_site_thermal_displace_type
  _atom_site_B_iso_or_equiv
  _atom_site_type_symbol
  O1       1.0000 0.18610  0.92650  0.81690  Biso   1.000  O
  O2       1.0000 0.30790  0.57500  0.34660  Biso   1.000  O
  N1       1.0000 0.08430  0.66770  0.14070  Biso   1.000  N
  N2       1.0000 0.17310  0.71820  0.87340  Biso   1.000  N
  H1       1.0000 0.17580  0.63830  0.85310  Biso   1.000  H
  N3       1.0000 0.41420  0.80980  0.01350  Biso   1.000  N
  N4       1.0000 0.32740  0.77840  0.28320  Biso   1.000  N
  H2       1.0000 0.32710  0.85920  0.30130  Biso   1.000  H
  C1       1.0000 0.10620  0.65600  0.03520  Biso   1.000  C
  H3       1.0000 0.08890  0.58650  0.99380  Biso   1.000  H
  C2       1.0000 0.15370  0.74280  0.98470  Biso   1.000  C
  C3       1.0000 0.18080  0.84380  0.04760  Biso   1.000  C
  H4       1.0000 0.21300  0.90310  0.01710  Biso   1.000  H
  C4       1.0000 0.15940  0.85480  0.15620  Biso   1.000  C
  H5       1.0000 0.17700  0.92230  0.19970  Biso   1.000  H
  C5       1.0000 0.11200  0.76640  0.20070  Biso   1.000  C
  H6       1.0000 0.09850  0.77500  0.27450  Biso   1.000  H
  C6       1.0000 0.18760  0.80960  0.79660  Biso   1.000  C
  C7       1.0000 0.20670  0.75510  0.68350  Biso   1.000  C
  H7       1.0000 0.17550  0.68000  0.66980  Biso   1.000  H
  C8       1.0000 0.28480  0.70770  0.68170  Biso   1.000  C
  H8       1.0000 0.31660  0.77890  0.70120  Biso   1.000  H
  H9       1.0000 0.29090  0.63970  0.73650  Biso   1.000  H
  C9       1.0000 0.30580  0.65550  0.56820  Biso   1.000  C
  H10      1.0000 0.35640  0.63190  0.56900  Biso   1.000  H
  H11      1.0000 0.27820  0.57740  0.55320  Biso   1.000  H
  C10      1.0000 0.29290  0.75200  0.47630  Biso   1.000  C
  H12      1.0000 0.32480  0.82680  0.48760  Biso   1.000  H
  C11      1.0000 0.21470  0.79950  0.47790  Biso   1.000  C
  H13      1.0000 0.20850  0.86640  0.42210  Biso   1.000  H
  H14      1.0000 0.18300  0.72780  0.45940  Biso   1.000  H
  C12      1.0000 0.19360  0.85380  0.59060  Biso   1.000  C
  H15      1.0000 0.14300  0.87760  0.58950  Biso   1.000  H
  H16      1.0000 0.22140  0.93180  0.60520  Biso   1.000  H
  C13      1.0000 0.38540  0.71060  0.95860  Biso   1.000  C
  H17      1.0000 0.39910  0.69670  0.88550  Biso   1.000  H
  C14      1.0000 0.33600  0.62750  0.00610  Biso   1.000  C
  H18      1.0000 0.31670  0.55920  0.96530  Biso   1.000  H
  C15      1.0000 0.31540  0.64650  0.11460  Biso   1.000  C
  H19      1.0000 0.28180  0.59200  0.14780  Biso   1.000  H
  C16      1.0000 0.34580  0.74830  0.17300  Biso   1.000  C
  C17      1.0000 0.39530  0.82760  0.12010  Biso   1.000  C
  H20      1.0000 0.41630  0.89540  0.15950  Biso   1.000  H
  C18      1.0000 0.30990  0.69170  0.36450  Biso   1.000  C
  O3       1.0000 0.81390  0.92650  0.81690  Biso   1.000  O
  O4       1.0000 0.69210  0.57500  0.34660  Biso   1.000  O
  N5       1.0000 0.91570  0.66770  0.14070  Biso   1.000  N
  N6       1.0000 0.82690  0.71820  0.87340  Biso   1.000  N
  H21      1.0000 0.82420  0.63830  0.85310  Biso   1.000  H
  N7       1.0000 0.58580  0.80980  0.01350  Biso   1.000  N
  N8       1.0000 0.67260  0.77840  0.28320  Biso   1.000  N
  H22      1.0000 0.67290  0.85920  0.30130  Biso   1.000  H
  C19      1.0000 0.89380  0.65600  0.03520  Biso   1.000  C
  H23      1.0000 0.91110  0.58650  0.99380  Biso   1.000  H
  C20      1.0000 0.84630  0.74280  0.98470  Biso   1.000  C
  C21      1.0000 0.81920  0.84380  0.04760  Biso   1.000  C
  H24      1.0000 0.78700  0.90310  0.01710  Biso   1.000  H
  C22      1.0000 0.84060  0.85480  0.15620  Biso   1.000  C
  H25      1.0000 0.82300  0.92230  0.19970  Biso   1.000  H
  C23      1.0000 0.88800  0.76640  0.20070  Biso   1.000  C
  H26      1.0000 0.90150  0.77500  0.27450  Biso   1.000  H
  C24      1.0000 0.81240  0.80960  0.79660  Biso   1.000  C
  C25      1.0000 0.79330  0.75510  0.68350  Biso   1.000  C
  H27      1.0000 0.82450  0.68000  0.66980  Biso   1.000  H
  C26      1.0000 0.71520  0.70770  0.68170  Biso   1.000  C
  H28      1.0000 0.68340  0.77890  0.70120  Biso   1.000  H
  H29      1.0000 0.70910  0.63970  0.73650  Biso   1.000  H
  C27      1.0000 0.69420  0.65550  0.56820  Biso   1.000  C
  H30      1.0000 0.64360  0.63190  0.56900  Biso   1.000  H
  H31      1.0000 0.72180  0.57740  0.55320  Biso   1.000  H
  C28      1.0000 0.70710  0.75200  0.47630  Biso   1.000  C
  H32      1.0000 0.67520  0.82680  0.48760  Biso   1.000  H
  C29      1.0000 0.78530  0.79950  0.47790  Biso   1.000  C
  H33      1.0000 0.79150  0.86640  0.42210  Biso   1.000  H
  H34      1.0000 0.81700  0.72780  0.45940  Biso   1.000  H
  C30      1.0000 0.80640  0.85380  0.59060  Biso   1.000  C
  H35      1.0000 0.85700  0.87760  0.58950  Biso   1.000  H
  H36      1.0000 0.77860  0.93180  0.60520  Biso   1.000  H
  C31      1.0000 0.61460  0.71060  0.95860  Biso   1.000  C
  H37      1.0000 0.60090  0.69670  0.88550  Biso   1.000  H
  C32      1.0000 0.66400  0.62750  0.00610  Biso   1.000  C
  H38      1.0000 0.68330  0.55920  0.96530  Biso   1.000  H
  C33      1.0000 0.68460  0.64650  0.11460  Biso   1.000  C
  H39      1.0000 0.71820  0.59200  0.14780  Biso   1.000  H
  C34      1.0000 0.65420  0.74830  0.17300  Biso   1.000  C
  C35      1.0000 0.60470  0.82760  0.12010  Biso   1.000  C
  H40      1.0000 0.58370  0.89540  0.15950  Biso   1.000  H
  C36      1.0000 0.69010  0.69170  0.36450  Biso   1.000  C
  Zn1      1.0000 0.50000  0.91796  0.94427  Biso   1.000  Zn
  Zn2      1.0000 0.00000  0.55537  0.20741  Biso   1.000  Zn
  O5       1.0000 0.31390  0.07350  0.31690  Biso   1.000  O
  O6       1.0000 0.19210  0.42500  0.84660  Biso   1.000  O
  N9       1.0000 0.41570  0.33230  0.64070  Biso   1.000  N
  N10      1.0000 0.32690  0.28180  0.37340  Biso   1.000  N
  H41      1.0000 0.32420  0.36170  0.35310  Biso   1.000  H
  N11      1.0000 0.08580  0.19020  0.51350  Biso   1.000  N
  N12      1.0000 0.17260  0.22160  0.78320  Biso   1.000  N
  H42      1.0000 0.17290  0.14080  0.80130  Biso   1.000  H
  C37      1.0000 0.39380  0.34400  0.53520  Biso   1.000  C
  H43      1.0000 0.41110  0.41350  0.49380  Biso   1.000  H
  C38      1.0000 0.34630  0.25720  0.48470  Biso   1.000  C
  C39      1.0000 0.31920  0.15620  0.54760  Biso   1.000  C
  H44      1.0000 0.28700  0.09690  0.51710  Biso   1.000  H
  C40      1.0000 0.34060  0.14520  0.65620  Biso   1.000  C
  H45      1.0000 0.32300  0.07770  0.69970  Biso   1.000  H
  C41      1.0000 0.38800  0.23360  0.70070  Biso   1.000  C
  H46      1.0000 0.40150  0.22500  0.77450  Biso   1.000  H
  C42      1.0000 0.31240  0.19040  0.29660  Biso   1.000  C
  C43      1.0000 0.29330  0.24490  0.18350  Biso   1.000  C
  H47      1.0000 0.32450  0.32000  0.16980  Biso   1.000  H
  C44      1.0000 0.21520  0.29230  0.18170  Biso   1.000  C
  H48      1.0000 0.18340  0.22110  0.20120  Biso   1.000  H
  H49      1.0000 0.20910  0.36030  0.23650  Biso   1.000  H
  C45      1.0000 0.19420  0.34450  0.06820  Biso   1.000  C
  H50      1.0000 0.14360  0.36810  0.06900  Biso   1.000  H
  H51      1.0000 0.22180  0.42260  0.05320  Biso   1.000  H
  C46      1.0000 0.20710  0.24800  0.97630  Biso   1.000  C
  H52      1.0000 0.17520  0.17320  0.98760  Biso   1.000  H
  C47      1.0000 0.28530  0.20050  0.97790  Biso   1.000  C
  H53      1.0000 0.29150  0.13360  0.92210  Biso   1.000  H
  H54      1.0000 0.31700  0.27220  0.95940  Biso   1.000  H
  C48      1.0000 0.30640  0.14620  0.09060  Biso   1.000  C
  H55      1.0000 0.35700  0.12240  0.08950  Biso   1.000  H
  H56      1.0000 0.27860  0.06820  0.10520  Biso   1.000  H
  C49      1.0000 0.11460  0.28940  0.45860  Biso   1.000  C
  H57      1.0000 0.10090  0.30330  0.38550  Biso   1.000  H
  C50      1.0000 0.16400  0.37250  0.50610  Biso   1.000  C
  H58      1.0000 0.18330  0.44080  0.46530  Biso   1.000  H
  C51      1.0000 0.18460  0.35350  0.61460  Biso   1.000  C
  H59      1.0000 0.21820  0.40800  0.64780  Biso   1.000  H
  C52      1.0000 0.15420  0.25170  0.67300  Biso   1.000  C
  C53      1.0000 0.10470  0.17240  0.62010  Biso   1.000  C
  H60      1.0000 0.08370  0.10460  0.65950  Biso   1.000  H
  C54      1.0000 0.19010  0.30830  0.86450  Biso   1.000  C
  O7       1.0000 0.68610  0.07350  0.31690  Biso   1.000  O
  O8       1.0000 0.80790  0.42500  0.84660  Biso   1.000  O
  N13      1.0000 0.58430  0.33230  0.64070  Biso   1.000  N
  N14      1.0000 0.67310  0.28180  0.37340  Biso   1.000  N
  H61      1.0000 0.67580  0.36170  0.35310  Biso   1.000  H
  N15      1.0000 0.91420  0.19020  0.51350  Biso   1.000  N
  N16      1.0000 0.82740  0.22160  0.78320  Biso   1.000  N
  H62      1.0000 0.82710  0.14080  0.80130  Biso   1.000  H
  C55      1.0000 0.60620  0.34400  0.53520  Biso   1.000  C
  H63      1.0000 0.58890  0.41350  0.49380  Biso   1.000  H
  C56      1.0000 0.65370  0.25720  0.48470  Biso   1.000  C
  C57      1.0000 0.68080  0.15620  0.54760  Biso   1.000  C
  H64      1.0000 0.71300  0.09690  0.51710  Biso   1.000  H
  C58      1.0000 0.65940  0.14520  0.65620  Biso   1.000  C
  H65      1.0000 0.67700  0.07770  0.69970  Biso   1.000  H
  C59      1.0000 0.61200  0.23360  0.70070  Biso   1.000  C
  H66      1.0000 0.59850  0.22500  0.77450  Biso   1.000  H
  C60      1.0000 0.68760  0.19040  0.29660  Biso   1.000  C
  C61      1.0000 0.70670  0.24490  0.18350  Biso   1.000  C
  H67      1.0000 0.67550  0.32000  0.16980  Biso   1.000  H
  C62      1.0000 0.78480  0.29230  0.18170  Biso   1.000  C
  H68      1.0000 0.81660  0.22110  0.20120  Biso   1.000  H
  H69      1.0000 0.79090  0.36030  0.23650  Biso   1.000  H
  C63      1.0000 0.80580  0.34450  0.06820  Biso   1.000  C
  H70      1.0000 0.85640  0.36810  0.06900  Biso   1.000  H
  H71      1.0000 0.77820  0.42260  0.05320  Biso   1.000  H
  C64      1.0000 0.79290  0.24800  0.97630  Biso   1.000  C
  H72      1.0000 0.82480  0.17320  0.98760  Biso   1.000  H
  C65      1.0000 0.71470  0.20050  0.97790  Biso   1.000  C
  H73      1.0000 0.70850  0.13360  0.92210  Biso   1.000  H
  H74      1.0000 0.68300  0.27220  0.95940  Biso   1.000  H
  C66      1.0000 0.69360  0.14620  0.09060  Biso   1.000  C
  H75      1.0000 0.64300  0.12240  0.08950  Biso   1.000  H
  H76      1.0000 0.72140  0.06820  0.10520  Biso   1.000  H
  C67      1.0000 0.88540  0.28940  0.45860  Biso   1.000  C
  H77      1.0000 0.89910  0.30330  0.38550  Biso   1.000  H
  C68      1.0000 0.83600  0.37250  0.50610  Biso   1.000  C
  H78      1.0000 0.81670  0.44080  0.46530  Biso   1.000  H
  C69      1.0000 0.81540  0.35350  0.61460  Biso   1.000  C
  H79      1.0000 0.78180  0.40800  0.64780  Biso   1.000  H
  C70      1.0000 0.84580  0.25170  0.67300  Biso   1.000  C
  C71      1.0000 0.89530  0.17240  0.62010  Biso   1.000  C
  H80      1.0000 0.91630  0.10460  0.65950  Biso   1.000  H
  C72      1.0000 0.80990  0.30830  0.86450  Biso   1.000  C
  Zn3      1.0000 0.00000  0.08204  0.44427  Biso   1.000  Zn
  Zn4      1.0000 0.50000  0.44463  0.70741  Biso   1.000  Zn
