data_image0
_cell_length_a       16.0491
_cell_length_b       16.0491
_cell_length_c       15.3683
_cell_angle_alpha    90
_cell_angle_beta     90
_cell_angle_gamma    90

_symmetry_space_group_name_H-M    "P 1"
_symmetry_int_tables_number       1

loop_
  _symmetry_equiv_pos_as_xyz
  'x, y, z'

loop_
  _atom_site_label
  _atom_site_occupancy
  _atom_site_fract_x
  _atom_site_fract_y
  _atom_site_fract_z
  _atom_site_thermal_displace_type
  _atom_site_B_iso_or_equiv
  _atom_site_type_symbol
  C1       1.0000 0.09870  0.84990  0.31300  Biso   1.000  C
  H1       1.0000 0.05910  0.85220  0.35890  Biso   1.000  H
  C2       1.0000 0.15850  0.78830  0.31470  Biso   1.000  C
  H2       1.0000 0.15920  0.74930  0.36110  Biso   1.000  H
  C3       1.0000 0.90130  0.15010  0.31300  Biso   1.000  C
  H3       1.0000 0.94090  0.14780  0.35890  Biso   1.000  H
  C4       1.0000 0.84150  0.21170  0.31470  Biso   1.000  C
  H4       1.0000 0.84080  0.25070  0.36110  Biso   1.000  H
  C5       1.0000 0.15010  0.09870  0.31300  Biso   1.000  C
  H5       1.0000 0.14780  0.05910  0.35890  Biso   1.000  H
  C6       1.0000 0.21170  0.15850  0.31470  Biso   1.000  C
  H6       1.0000 0.25070  0.15920  0.36110  Biso   1.000  H
  C7       1.0000 0.84990  0.90130  0.31300  Biso   1.000  C
  H7       1.0000 0.85220  0.94090  0.35890  Biso   1.000  H
  C8       1.0000 0.78830  0.84150  0.31470  Biso   1.000  C
  H8       1.0000 0.74930  0.84080  0.36110  Biso   1.000  H
  C9       1.0000 0.90130  0.84990  0.18700  Biso   1.000  C
  H9       1.0000 0.94090  0.85220  0.14110  Biso   1.000  H
  C10      1.0000 0.84150  0.78830  0.18530  Biso   1.000  C
  H10      1.0000 0.84080  0.74930  0.13890  Biso   1.000  H
  C11      1.0000 0.09870  0.15010  0.18700  Biso   1.000  C
  H11      1.0000 0.05910  0.14780  0.14110  Biso   1.000  H
  C12      1.0000 0.15850  0.21170  0.18530  Biso   1.000  C
  H12      1.0000 0.15920  0.25070  0.13890  Biso   1.000  H
  C13      1.0000 0.84990  0.09870  0.18700  Biso   1.000  C
  H13      1.0000 0.85220  0.05910  0.14110  Biso   1.000  H
  C14      1.0000 0.78830  0.15850  0.18530  Biso   1.000  C
  H14      1.0000 0.74930  0.15920  0.13890  Biso   1.000  H
  C15      1.0000 0.15010  0.90130  0.18700  Biso   1.000  C
  H15      1.0000 0.14780  0.94090  0.14110  Biso   1.000  H
  C16      1.0000 0.21170  0.84150  0.18530  Biso   1.000  C
  H16      1.0000 0.25070  0.84080  0.13890  Biso   1.000  H
  C17      1.0000 0.40130  0.65010  0.18700  Biso   1.000  C
  H17      1.0000 0.44090  0.64780  0.14110  Biso   1.000  H
  C18      1.0000 0.34150  0.71170  0.18530  Biso   1.000  C
  H18      1.0000 0.34080  0.75070  0.13890  Biso   1.000  H
  C19      1.0000 0.59870  0.34990  0.18700  Biso   1.000  C
  H19      1.0000 0.55910  0.35220  0.14110  Biso   1.000  H
  C20      1.0000 0.65850  0.28830  0.18530  Biso   1.000  C
  H20      1.0000 0.65920  0.24930  0.13890  Biso   1.000  H
  C21      1.0000 0.34990  0.40130  0.18700  Biso   1.000  C
  H21      1.0000 0.35220  0.44090  0.14110  Biso   1.000  H
  C22      1.0000 0.28830  0.34150  0.18530  Biso   1.000  C
  H22      1.0000 0.24930  0.34080  0.13890  Biso   1.000  H
  C23      1.0000 0.65010  0.59870  0.18700  Biso   1.000  C
  H23      1.0000 0.64780  0.55910  0.14110  Biso   1.000  H
  C24      1.0000 0.71170  0.65850  0.18530  Biso   1.000  C
  H24      1.0000 0.75070  0.65920  0.13890  Biso   1.000  H
  C25      1.0000 0.59870  0.65010  0.31300  Biso   1.000  C
  H25      1.0000 0.55910  0.64780  0.35890  Biso   1.000  H
  C26      1.0000 0.65850  0.71170  0.31470  Biso   1.000  C
  H26      1.0000 0.65920  0.75070  0.36110  Biso   1.000  H
  C27      1.0000 0.40130  0.34990  0.31300  Biso   1.000  C
  H27      1.0000 0.44090  0.35220  0.35890  Biso   1.000  H
  C28      1.0000 0.34150  0.28830  0.31470  Biso   1.000  C
  H28      1.0000 0.34080  0.24930  0.36110  Biso   1.000  H
  C29      1.0000 0.65010  0.40130  0.31300  Biso   1.000  C
  H29      1.0000 0.64780  0.44090  0.35890  Biso   1.000  H
  C30      1.0000 0.71170  0.34150  0.31470  Biso   1.000  C
  H30      1.0000 0.75070  0.34080  0.36110  Biso   1.000  H
  C31      1.0000 0.34990  0.59870  0.31300  Biso   1.000  C
  H31      1.0000 0.35220  0.55910  0.35890  Biso   1.000  H
  C32      1.0000 0.28830  0.65850  0.31470  Biso   1.000  C
  H32      1.0000 0.24930  0.65920  0.36110  Biso   1.000  H
  Zn1      1.0000 0.00000  0.00000  0.25000  Biso   1.000  Zn
  Zn2      1.0000 0.50000  0.50000  0.25000  Biso   1.000  Zn
  N1       1.0000 0.09390  0.90610  0.25000  Biso   1.000  N
  C33      1.0000 0.21700  0.78300  0.25000  Biso   1.000  C
  N2       1.0000 0.90610  0.09390  0.25000  Biso   1.000  N
  C34      1.0000 0.78300  0.21700  0.25000  Biso   1.000  C
  N3       1.0000 0.09390  0.09390  0.25000  Biso   1.000  N
  C35      1.0000 0.21700  0.21700  0.25000  Biso   1.000  C
  N4       1.0000 0.90610  0.90610  0.25000  Biso   1.000  N
  C36      1.0000 0.78300  0.78300  0.25000  Biso   1.000  C
  N5       1.0000 0.40610  0.59390  0.25000  Biso   1.000  N
  C37      1.0000 0.28300  0.71700  0.25000  Biso   1.000  C
  N6       1.0000 0.59390  0.40610  0.25000  Biso   1.000  N
  C38      1.0000 0.71700  0.28300  0.25000  Biso   1.000  C
  N7       1.0000 0.40610  0.40610  0.25000  Biso   1.000  N
  C39      1.0000 0.28300  0.28300  0.25000  Biso   1.000  C
  N8       1.0000 0.59390  0.59390  0.25000  Biso   1.000  N
  C40      1.0000 0.71700  0.71700  0.25000  Biso   1.000  C
  C41      1.0000 0.59870  0.34990  0.81300  Biso   1.000  C
  H33      1.0000 0.55910  0.35220  0.85890  Biso   1.000  H
  C42      1.0000 0.65850  0.28830  0.81470  Biso   1.000  C
  H34      1.0000 0.65920  0.24930  0.86110  Biso   1.000  H
  C43      1.0000 0.40130  0.65010  0.81300  Biso   1.000  C
  H35      1.0000 0.44090  0.64780  0.85890  Biso   1.000  H
  C44      1.0000 0.34150  0.71170  0.81470  Biso   1.000  C
  H36      1.0000 0.34080  0.75070  0.86110  Biso   1.000  H
  C45      1.0000 0.65010  0.59870  0.81300  Biso   1.000  C
  H37      1.0000 0.64780  0.55910  0.85890  Biso   1.000  H
  C46      1.0000 0.71170  0.65850  0.81470  Biso   1.000  C
  H38      1.0000 0.75070  0.65920  0.86110  Biso   1.000  H
  C47      1.0000 0.34990  0.40130  0.81300  Biso   1.000  C
  H39      1.0000 0.35220  0.44090  0.85890  Biso   1.000  H
  C48      1.0000 0.28830  0.34150  0.81470  Biso   1.000  C
  H40      1.0000 0.24930  0.34080  0.86110  Biso   1.000  H
  C49      1.0000 0.40130  0.34990  0.68700  Biso   1.000  C
  H41      1.0000 0.44090  0.35220  0.64110  Biso   1.000  H
  C50      1.0000 0.34150  0.28830  0.68530  Biso   1.000  C
  H42      1.0000 0.34080  0.24930  0.63890  Biso   1.000  H
  C51      1.0000 0.59870  0.65010  0.68700  Biso   1.000  C
  H43      1.0000 0.55910  0.64780  0.64110  Biso   1.000  H
  C52      1.0000 0.65850  0.71170  0.68530  Biso   1.000  C
  H44      1.0000 0.65920  0.75070  0.63890  Biso   1.000  H
  C53      1.0000 0.34990  0.59870  0.68700  Biso   1.000  C
  H45      1.0000 0.35220  0.55910  0.64110  Biso   1.000  H
  C54      1.0000 0.28830  0.65850  0.68530  Biso   1.000  C
  H46      1.0000 0.24930  0.65920  0.63890  Biso   1.000  H
  C55      1.0000 0.65010  0.40130  0.68700  Biso   1.000  C
  H47      1.0000 0.64780  0.44090  0.64110  Biso   1.000  H
  C56      1.0000 0.71170  0.34150  0.68530  Biso   1.000  C
  H48      1.0000 0.75070  0.34080  0.63890  Biso   1.000  H
  C57      1.0000 0.90130  0.15010  0.68700  Biso   1.000  C
  H49      1.0000 0.94090  0.14780  0.64110  Biso   1.000  H
  C58      1.0000 0.84150  0.21170  0.68530  Biso   1.000  C
  H50      1.0000 0.84080  0.25070  0.63890  Biso   1.000  H
  C59      1.0000 0.09870  0.84990  0.68700  Biso   1.000  C
  H51      1.0000 0.05910  0.85220  0.64110  Biso   1.000  H
  C60      1.0000 0.15850  0.78830  0.68530  Biso   1.000  C
  H52      1.0000 0.15920  0.74930  0.63890  Biso   1.000  H
  C61      1.0000 0.84990  0.90130  0.68700  Biso   1.000  C
  H53      1.0000 0.85220  0.94090  0.64110  Biso   1.000  H
  C62      1.0000 0.78830  0.84150  0.68530  Biso   1.000  C
  H54      1.0000 0.74930  0.84080  0.63890  Biso   1.000  H
  C63      1.0000 0.15010  0.09870  0.68700  Biso   1.000  C
  H55      1.0000 0.14780  0.05910  0.64110  Biso   1.000  H
  C64      1.0000 0.21170  0.15850  0.68530  Biso   1.000  C
  H56      1.0000 0.25070  0.15920  0.63890  Biso   1.000  H
  C65      1.0000 0.09870  0.15010  0.81300  Biso   1.000  C
  H57      1.0000 0.05910  0.14780  0.85890  Biso   1.000  H
  C66      1.0000 0.15850  0.21170  0.81470  Biso   1.000  C
  H58      1.0000 0.15920  0.25070  0.86110  Biso   1.000  H
  C67      1.0000 0.90130  0.84990  0.81300  Biso   1.000  C
  H59      1.0000 0.94090  0.85220  0.85890  Biso   1.000  H
  C68      1.0000 0.84150  0.78830  0.81470  Biso   1.000  C
  H60      1.0000 0.84080  0.74930  0.86110  Biso   1.000  H
  C69      1.0000 0.15010  0.90130  0.81300  Biso   1.000  C
  H61      1.0000 0.14780  0.94090  0.85890  Biso   1.000  H
  C70      1.0000 0.21170  0.84150  0.81470  Biso   1.000  C
  H62      1.0000 0.25070  0.84080  0.86110  Biso   1.000  H
  C71      1.0000 0.84990  0.09870  0.81300  Biso   1.000  C
  H63      1.0000 0.85220  0.05910  0.85890  Biso   1.000  H
  C72      1.0000 0.78830  0.15850  0.81470  Biso   1.000  C
  H64      1.0000 0.74930  0.15920  0.86110  Biso   1.000  H
  Zn3      1.0000 0.50000  0.50000  0.75000  Biso   1.000  Zn
  Zn4      1.0000 0.00000  0.00000  0.75000  Biso   1.000  Zn
  N9       1.0000 0.59390  0.40610  0.75000  Biso   1.000  N
  C73      1.0000 0.71700  0.28300  0.75000  Biso   1.000  C
  N10      1.0000 0.40610  0.59390  0.75000  Biso   1.000  N
  C74      1.0000 0.28300  0.71700  0.75000  Biso   1.000  C
  N11      1.0000 0.59390  0.59390  0.75000  Biso   1.000  N
  C75      1.0000 0.71700  0.71700  0.75000  Biso   1.000  C
  N12      1.0000 0.40610  0.40610  0.75000  Biso   1.000  N
  C76      1.0000 0.28300  0.28300  0.75000  Biso   1.000  C
  N13      1.0000 0.90610  0.09390  0.75000  Biso   1.000  N
  C77      1.0000 0.78300  0.21700  0.75000  Biso   1.000  C
  N14      1.0000 0.09390  0.90610  0.75000  Biso   1.000  N
  C78      1.0000 0.21700  0.78300  0.75000  Biso   1.000  C
  N15      1.0000 0.90610  0.90610  0.75000  Biso   1.000  N
  C79      1.0000 0.78300  0.78300  0.75000  Biso   1.000  C
  N16      1.0000 0.09390  0.09390  0.75000  Biso   1.000  N
  C80      1.0000 0.21700  0.21700  0.75000  Biso   1.000  C
