data_image0
_cell_length_a       28.13
_cell_length_b       14.767
_cell_length_c       20.838
_cell_angle_alpha    90
_cell_angle_beta     99.78
_cell_angle_gamma    90

_symmetry_space_group_name_H-M    "P 1"
_symmetry_int_tables_number       1

loop_
  _symmetry_equiv_pos_as_xyz
  'x, y, z'

loop_
  _atom_site_label
  _atom_site_occupancy
  _atom_site_fract_x
  _atom_site_fract_y
  _atom_site_fract_z
  _atom_site_thermal_displace_type
  _atom_site_B_iso_or_equiv
  _atom_site_type_symbol
  C1       1.0000 0.53660  0.58900  0.67290  Biso   1.000  C
  O1       1.0000 0.49530  0.54200  0.68610  Biso   1.000  O
  O2       1.0000 0.56540  0.55100  0.65060  Biso   1.000  O
  C2       1.0000 0.53530  0.68490  0.68750  Biso   1.000  C
  O3       1.0000 0.49280  0.71350  0.71640  Biso   1.000  O
  C3       1.0000 0.53200  0.74310  0.62730  Biso   1.000  C
  O4       1.0000 0.49580  0.71260  0.57700  Biso   1.000  O
  C4       1.0000 0.52880  0.84290  0.64140  Biso   1.000  C
  O5       1.0000 0.49070  0.87910  0.60940  Biso   1.000  O
  O6       1.0000 0.55750  0.87870  0.68110  Biso   1.000  O
  C5       1.0000 0.47320  0.34530  0.85870  Biso   1.000  C
  O7       1.0000 0.51000  0.38170  0.89000  Biso   1.000  O
  O8       1.0000 0.44320  0.37890  0.81800  Biso   1.000  O
  C6       1.0000 0.46760  0.24710  0.87470  Biso   1.000  C
  O9       1.0000 0.50630  0.21560  0.92330  Biso   1.000  O
  C7       1.0000 0.46560  0.18560  0.81430  Biso   1.000  C
  O10      1.0000 0.50710  0.21100  0.78430  Biso   1.000  O
  C8       1.0000 0.46830  0.08730  0.83100  Biso   1.000  C
  O11      1.0000 0.50620  0.04390  0.81580  Biso   1.000  O
  O12      1.0000 0.43770  0.05060  0.85860  Biso   1.000  O
  Ag1      1.0000 0.55150  0.03600  0.67040  Biso   1.000  Ag
  Ag2      1.0000 0.45110  0.53540  0.83010  Biso   1.000  Ag
  C9       1.0000 0.37080  0.72760  0.70070  Biso   1.000  C
  O13      1.0000 0.40810  0.71950  0.74410  Biso   1.000  O
  O14      1.0000 0.33680  0.77870  0.70370  Biso   1.000  O
  C10      1.0000 0.37230  0.66930  0.64200  Biso   1.000  C
  O15      1.0000 0.41170  0.61420  0.64910  Biso   1.000  O
  C11      1.0000 0.37140  0.72830  0.58450  Biso   1.000  C
  O16      1.0000 0.40810  0.79400  0.59530  Biso   1.000  O
  C12      1.0000 0.37670  0.67390  0.52140  Biso   1.000  C
  O17      1.0000 0.34620  0.61650  0.50010  Biso   1.000  O
  O18      1.0000 0.41330  0.69140  0.49850  Biso   1.000  O
  C13      1.0000 0.62470  0.18000  0.97550  Biso   1.000  C
  O19      1.0000 0.58650  0.19750  0.00060  Biso   1.000  O
  O20      1.0000 0.65460  0.12290  0.99690  Biso   1.000  O
  C14      1.0000 0.63030  0.23650  0.91730  Biso   1.000  C
  O21      1.0000 0.59350  0.29930  0.90240  Biso   1.000  O
  C15      1.0000 0.62860  0.17320  0.85730  Biso   1.000  C
  O22      1.0000 0.58910  0.11580  0.85150  Biso   1.000  O
  C16      1.0000 0.63160  0.22580  0.79820  Biso   1.000  C
  O23      1.0000 0.59290  0.22410  0.75520  Biso   1.000  O
  O24      1.0000 0.66680  0.27310  0.79210  Biso   1.000  O
  As1      1.0000 0.45170  0.79740  0.54150  Biso   1.000  As
  As2      1.0000 0.45140  0.62140  0.72680  Biso   1.000  As
  As3      1.0000 0.55000  0.30190  0.95810  Biso   1.000  As
  As4      1.0000 0.54860  0.12140  0.77450  Biso   1.000  As
  H1       1.0000 0.56470  0.70100  0.71770  Biso   1.000  H
  H2       1.0000 0.56260  0.73470  0.61140  Biso   1.000  H
  H3       1.0000 0.43730  0.23990  0.89160  Biso   1.000  H
  H4       1.0000 0.43580  0.19770  0.78370  Biso   1.000  H
  H5       1.0000 0.34330  0.63120  0.63490  Biso   1.000  H
  H6       1.0000 0.34020  0.75970  0.57650  Biso   1.000  H
  H7       1.0000 0.66140  0.26800  0.92570  Biso   1.000  H
  H8       1.0000 0.65750  0.13500  0.86580  Biso   1.000  H
  C17      1.0000 0.46340  0.58900  0.32710  Biso   1.000  C
  O25      1.0000 0.50470  0.54200  0.31390  Biso   1.000  O
  O26      1.0000 0.43460  0.55100  0.34940  Biso   1.000  O
  C18      1.0000 0.46470  0.68490  0.31250  Biso   1.000  C
  O27      1.0000 0.50720  0.71350  0.28360  Biso   1.000  O
  C19      1.0000 0.46800  0.74310  0.37270  Biso   1.000  C
  O28      1.0000 0.50420  0.71260  0.42300  Biso   1.000  O
  C20      1.0000 0.47120  0.84290  0.35860  Biso   1.000  C
  O29      1.0000 0.50930  0.87910  0.39060  Biso   1.000  O
  O30      1.0000 0.44250  0.87870  0.31890  Biso   1.000  O
  C21      1.0000 0.52680  0.34530  0.14130  Biso   1.000  C
  O31      1.0000 0.49000  0.38170  0.11000  Biso   1.000  O
  O32      1.0000 0.55680  0.37890  0.18200  Biso   1.000  O
  C22      1.0000 0.53240  0.24710  0.12530  Biso   1.000  C
  O33      1.0000 0.49370  0.21560  0.07670  Biso   1.000  O
  C23      1.0000 0.53440  0.18560  0.18570  Biso   1.000  C
  O34      1.0000 0.49290  0.21100  0.21570  Biso   1.000  O
  C24      1.0000 0.53170  0.08730  0.16900  Biso   1.000  C
  O35      1.0000 0.49380  0.04390  0.18420  Biso   1.000  O
  O36      1.0000 0.56230  0.05060  0.14140  Biso   1.000  O
  Ag3      1.0000 0.44850  0.03600  0.32960  Biso   1.000  Ag
  Ag4      1.0000 0.54890  0.53540  0.16990  Biso   1.000  Ag
  C25      1.0000 0.62920  0.72760  0.29930  Biso   1.000  C
  O37      1.0000 0.59190  0.71950  0.25590  Biso   1.000  O
  O38      1.0000 0.66320  0.77870  0.29630  Biso   1.000  O
  C26      1.0000 0.62770  0.66930  0.35800  Biso   1.000  C
  O39      1.0000 0.58830  0.61420  0.35090  Biso   1.000  O
  C27      1.0000 0.62860  0.72830  0.41550  Biso   1.000  C
  O40      1.0000 0.59190  0.79400  0.40470  Biso   1.000  O
  C28      1.0000 0.62330  0.67390  0.47860  Biso   1.000  C
  O41      1.0000 0.65380  0.61650  0.49990  Biso   1.000  O
  O42      1.0000 0.58670  0.69140  0.50150  Biso   1.000  O
  C29      1.0000 0.37530  0.18000  0.02450  Biso   1.000  C
  O43      1.0000 0.41350  0.19750  0.99940  Biso   1.000  O
  O44      1.0000 0.34540  0.12290  0.00310  Biso   1.000  O
  C30      1.0000 0.36970  0.23650  0.08270  Biso   1.000  C
  O45      1.0000 0.40650  0.29930  0.09760  Biso   1.000  O
  C31      1.0000 0.37140  0.17320  0.14270  Biso   1.000  C
  O46      1.0000 0.41090  0.11580  0.14850  Biso   1.000  O
  C32      1.0000 0.36840  0.22580  0.20180  Biso   1.000  C
  O47      1.0000 0.40710  0.22410  0.24480  Biso   1.000  O
  O48      1.0000 0.33320  0.27310  0.20790  Biso   1.000  O
  As5      1.0000 0.54830  0.79740  0.45850  Biso   1.000  As
  As6      1.0000 0.54860  0.62140  0.27320  Biso   1.000  As
  As7      1.0000 0.45000  0.30190  0.04190  Biso   1.000  As
  As8      1.0000 0.45140  0.12140  0.22550  Biso   1.000  As
  H9       1.0000 0.43530  0.70100  0.28230  Biso   1.000  H
  H10      1.0000 0.43740  0.73470  0.38860  Biso   1.000  H
  H11      1.0000 0.56270  0.23990  0.10840  Biso   1.000  H
  H12      1.0000 0.56420  0.19770  0.21630  Biso   1.000  H
  H13      1.0000 0.65670  0.63120  0.36510  Biso   1.000  H
  H14      1.0000 0.65980  0.75970  0.42350  Biso   1.000  H
  H15      1.0000 0.33860  0.26800  0.07430  Biso   1.000  H
  H16      1.0000 0.34250  0.13500  0.13420  Biso   1.000  H
  C33      1.0000 0.03660  0.08900  0.67290  Biso   1.000  C
  O49      1.0000 0.99530  0.04200  0.68610  Biso   1.000  O
  O50      1.0000 0.06540  0.05100  0.65060  Biso   1.000  O
  C34      1.0000 0.03530  0.18490  0.68750  Biso   1.000  C
  O51      1.0000 0.99280  0.21350  0.71640  Biso   1.000  O
  C35      1.0000 0.03200  0.24310  0.62730  Biso   1.000  C
  O52      1.0000 0.99580  0.21260  0.57700  Biso   1.000  O
  C36      1.0000 0.02880  0.34290  0.64140  Biso   1.000  C
  O53      1.0000 0.99070  0.37910  0.60940  Biso   1.000  O
  O54      1.0000 0.05750  0.37870  0.68110  Biso   1.000  O
  C37      1.0000 0.97320  0.84530  0.85870  Biso   1.000  C
  O55      1.0000 0.01000  0.88170  0.89000  Biso   1.000  O
  O56      1.0000 0.94320  0.87890  0.81800  Biso   1.000  O
  C38      1.0000 0.96760  0.74710  0.87470  Biso   1.000  C
  O57      1.0000 0.00630  0.71560  0.92330  Biso   1.000  O
  C39      1.0000 0.96560  0.68560  0.81430  Biso   1.000  C
  O58      1.0000 0.00710  0.71100  0.78430  Biso   1.000  O
  C40      1.0000 0.96830  0.58730  0.83100  Biso   1.000  C
  O59      1.0000 0.00620  0.54390  0.81580  Biso   1.000  O
  O60      1.0000 0.93770  0.55060  0.85860  Biso   1.000  O
  Ag5      1.0000 0.05150  0.53600  0.67040  Biso   1.000  Ag
  Ag6      1.0000 0.95110  0.03540  0.83010  Biso   1.000  Ag
  C41      1.0000 0.87080  0.22760  0.70070  Biso   1.000  C
  O61      1.0000 0.90810  0.21950  0.74410  Biso   1.000  O
  O62      1.0000 0.83680  0.27870  0.70370  Biso   1.000  O
  C42      1.0000 0.87230  0.16930  0.64200  Biso   1.000  C
  O63      1.0000 0.91170  0.11420  0.64910  Biso   1.000  O
  C43      1.0000 0.87140  0.22830  0.58450  Biso   1.000  C
  O64      1.0000 0.90810  0.29400  0.59530  Biso   1.000  O
  C44      1.0000 0.87670  0.17390  0.52140  Biso   1.000  C
  O65      1.0000 0.84620  0.11650  0.50010  Biso   1.000  O
  O66      1.0000 0.91330  0.19140  0.49850  Biso   1.000  O
  C45      1.0000 0.12470  0.68000  0.97550  Biso   1.000  C
  O67      1.0000 0.08650  0.69750  0.00060  Biso   1.000  O
  O68      1.0000 0.15460  0.62290  0.99690  Biso   1.000  O
  C46      1.0000 0.13030  0.73650  0.91730  Biso   1.000  C
  O69      1.0000 0.09350  0.79930  0.90240  Biso   1.000  O
  C47      1.0000 0.12860  0.67320  0.85730  Biso   1.000  C
  O70      1.0000 0.08910  0.61580  0.85150  Biso   1.000  O
  C48      1.0000 0.13160  0.72580  0.79820  Biso   1.000  C
  O71      1.0000 0.09290  0.72410  0.75520  Biso   1.000  O
  O72      1.0000 0.16680  0.77310  0.79210  Biso   1.000  O
  As9      1.0000 0.95170  0.29740  0.54150  Biso   1.000  As
  As10     1.0000 0.95140  0.12140  0.72680  Biso   1.000  As
  As11     1.0000 0.05000  0.80190  0.95810  Biso   1.000  As
  As12     1.0000 0.04860  0.62140  0.77450  Biso   1.000  As
  H17      1.0000 0.06470  0.20100  0.71770  Biso   1.000  H
  H18      1.0000 0.06260  0.23470  0.61140  Biso   1.000  H
  H19      1.0000 0.93730  0.73990  0.89160  Biso   1.000  H
  H20      1.0000 0.93580  0.69770  0.78370  Biso   1.000  H
  H21      1.0000 0.84330  0.13120  0.63490  Biso   1.000  H
  H22      1.0000 0.84020  0.25970  0.57650  Biso   1.000  H
  H23      1.0000 0.16140  0.76800  0.92570  Biso   1.000  H
  H24      1.0000 0.15750  0.63500  0.86580  Biso   1.000  H
  C49      1.0000 0.96340  0.08900  0.32710  Biso   1.000  C
  O73      1.0000 0.00470  0.04200  0.31390  Biso   1.000  O
  O74      1.0000 0.93460  0.05100  0.34940  Biso   1.000  O
  C50      1.0000 0.96470  0.18490  0.31250  Biso   1.000  C
  O75      1.0000 0.00720  0.21350  0.28360  Biso   1.000  O
  C51      1.0000 0.96800  0.24310  0.37270  Biso   1.000  C
  O76      1.0000 0.00420  0.21260  0.42300  Biso   1.000  O
  C52      1.0000 0.97120  0.34290  0.35860  Biso   1.000  C
  O77      1.0000 0.00930  0.37910  0.39060  Biso   1.000  O
  O78      1.0000 0.94250  0.37870  0.31890  Biso   1.000  O
  C53      1.0000 0.02680  0.84530  0.14130  Biso   1.000  C
  O79      1.0000 0.99000  0.88170  0.11000  Biso   1.000  O
  O80      1.0000 0.05680  0.87890  0.18200  Biso   1.000  O
  C54      1.0000 0.03240  0.74710  0.12530  Biso   1.000  C
  O81      1.0000 0.99370  0.71560  0.07670  Biso   1.000  O
  C55      1.0000 0.03440  0.68560  0.18570  Biso   1.000  C
  O82      1.0000 0.99290  0.71100  0.21570  Biso   1.000  O
  C56      1.0000 0.03170  0.58730  0.16900  Biso   1.000  C
  O83      1.0000 0.99380  0.54390  0.18420  Biso   1.000  O
  O84      1.0000 0.06230  0.55060  0.14140  Biso   1.000  O
  Ag7      1.0000 0.94850  0.53600  0.32960  Biso   1.000  Ag
  Ag8      1.0000 0.04890  0.03540  0.16990  Biso   1.000  Ag
  C57      1.0000 0.12920  0.22760  0.29930  Biso   1.000  C
  O85      1.0000 0.09190  0.21950  0.25590  Biso   1.000  O
  O86      1.0000 0.16320  0.27870  0.29630  Biso   1.000  O
  C58      1.0000 0.12770  0.16930  0.35800  Biso   1.000  C
  O87      1.0000 0.08830  0.11420  0.35090  Biso   1.000  O
  C59      1.0000 0.12860  0.22830  0.41550  Biso   1.000  C
  O88      1.0000 0.09190  0.29400  0.40470  Biso   1.000  O
  C60      1.0000 0.12330  0.17390  0.47860  Biso   1.000  C
  O89      1.0000 0.15380  0.11650  0.49990  Biso   1.000  O
  O90      1.0000 0.08670  0.19140  0.50150  Biso   1.000  O
  C61      1.0000 0.87530  0.68000  0.02450  Biso   1.000  C
  O91      1.0000 0.91350  0.69750  0.99940  Biso   1.000  O
  O92      1.0000 0.84540  0.62290  0.00310  Biso   1.000  O
  C62      1.0000 0.86970  0.73650  0.08270  Biso   1.000  C
  O93      1.0000 0.90650  0.79930  0.09760  Biso   1.000  O
  C63      1.0000 0.87140  0.67320  0.14270  Biso   1.000  C
  O94      1.0000 0.91090  0.61580  0.14850  Biso   1.000  O
  C64      1.0000 0.86840  0.72580  0.20180  Biso   1.000  C
  O95      1.0000 0.90710  0.72410  0.24480  Biso   1.000  O
  O96      1.0000 0.83320  0.77310  0.20790  Biso   1.000  O
  As13     1.0000 0.04830  0.29740  0.45850  Biso   1.000  As
  As14     1.0000 0.04860  0.12140  0.27320  Biso   1.000  As
  As15     1.0000 0.95000  0.80190  0.04190  Biso   1.000  As
  As16     1.0000 0.95140  0.62140  0.22550  Biso   1.000  As
  H25      1.0000 0.93530  0.20100  0.28230  Biso   1.000  H
  H26      1.0000 0.93740  0.23470  0.38860  Biso   1.000  H
  H27      1.0000 0.06270  0.73990  0.10840  Biso   1.000  H
  H28      1.0000 0.06420  0.69770  0.21630  Biso   1.000  H
  H29      1.0000 0.15670  0.13120  0.36510  Biso   1.000  H
  H30      1.0000 0.15980  0.25970  0.42350  Biso   1.000  H
  H31      1.0000 0.83860  0.76800  0.07430  Biso   1.000  H
  H32      1.0000 0.84250  0.63500  0.13420  Biso   1.000  H
