data_image0
_cell_length_a       21.1291
_cell_length_b       18.4006
_cell_length_c       21.8843
_cell_angle_alpha    90
_cell_angle_beta     100.796
_cell_angle_gamma    90

_symmetry_space_group_name_H-M    "P 1"
_symmetry_int_tables_number       1

loop_
  _symmetry_equiv_pos_as_xyz
  'x, y, z'

loop_
  _atom_site_label
  _atom_site_occupancy
  _atom_site_fract_x
  _atom_site_fract_y
  _atom_site_fract_z
  _atom_site_thermal_displace_type
  _atom_site_B_iso_or_equiv
  _atom_site_type_symbol
  Mo1      1.0000 0.15039  0.74092  0.63006  Biso   1.000  Mo
  Mo2      1.0000 0.09947  0.68627  0.38585  Biso   1.000  Mo
  Mo3      1.0000 0.27499  0.61297  0.63386  Biso   1.000  Mo
  Mo4      1.0000 0.19183  0.59236  0.38995  Biso   1.000  Mo
  Mo5      1.0000 0.07497  0.76963  0.52488  Biso   1.000  Mo
  Mo6      1.0000 0.29190  0.54962  0.53296  Biso   1.000  Mo
  Na1      1.0000 0.04930  0.58950  0.64550  Biso   1.000  Na
  Na2      1.0000 0.84467  0.57240  0.43202  Biso   1.000  Na
  P1       1.0000 0.13524  0.59803  0.52748  Biso   1.000  P
  P2       1.0000 0.21679  0.42101  0.43929  Biso   1.000  P
  P3       1.0000 0.19123  0.62620  0.74496  Biso   1.000  P
  P4       1.0000 0.96296  0.67567  0.43454  Biso   1.000  P
  O1       1.0000 0.28699  0.65309  0.55307  Biso   1.000  O
  O2       1.0000 0.17003  0.77370  0.54929  Biso   1.000  O
  O3       1.0000 0.24906  0.71829  0.65769  Biso   1.000  O
  O4       1.0000 0.09861  0.65923  0.48758  Biso   1.000  O
  O5       1.0000 0.19242  0.69276  0.42070  Biso   1.000  O
  O6       1.0000 0.06189  0.71465  0.59675  Biso   1.000  O
  O7       1.0000 0.09923  0.58182  0.37580  Biso   1.000  O
  O8       1.0000 0.28748  0.58561  0.44036  Biso   1.000  O
  O9       1.0000 0.18596  0.56759  0.49072  Biso   1.000  O
  O10      1.0000 0.17179  0.63217  0.58833  Biso   1.000  O
  O11      1.0000 0.00189  0.67832  0.38190  Biso   1.000  O
  O12      1.0000 0.08929  0.78361  0.43261  Biso   1.000  O
  O13      1.0000 0.09157  0.53905  0.54296  Biso   1.000  O
  O14      1.0000 0.19761  0.47935  0.38814  Biso   1.000  O
  O15      1.0000 0.25802  0.51426  0.60313  Biso   1.000  O
  O16      1.0000 0.96073  0.60186  0.46216  Biso   1.000  O
  O17      1.0000 0.98533  0.73507  0.48296  Biso   1.000  O
  O18      1.0000 0.14025  0.67030  0.70117  Biso   1.000  O
  O19      1.0000 0.23197  0.58150  0.70674  Biso   1.000  O
  O20      1.0000 0.89104  0.69520  0.40592  Biso   1.000  O
  O21      1.0000 0.26760  0.45076  0.49264  Biso   1.000  O
  O22      1.0000 0.14891  0.56930  0.77337  Biso   1.000  O
  O23      1.0000 0.95880  0.53510  0.58330  Biso   1.000  O
  O24      1.0000 0.25280  0.35990  0.41070  Biso   1.000  O
  O25      1.0000 0.15920  0.39230  0.46210  Biso   1.000  O
  O26      1.0000 0.23163  0.66920  0.79567  Biso   1.000  O
  H1       1.0000 0.16300  0.55600  0.80600  Biso   1.000  H
  H2       1.0000 0.24200  0.35600  0.37300  Biso   1.000  H
  H3       1.0000 0.11900  0.80700  0.43200  Biso   1.000  H
  H4       1.0000 0.94400  0.50300  0.59800  Biso   1.000  H
  H5       1.0000 0.30300  0.62200  0.44300  Biso   1.000  H
  H6       1.0000 0.88000  0.71400  0.37000  Biso   1.000  H
  H7       1.0000 0.91700  0.56100  0.56800  Biso   1.000  H
  H8       1.0000 0.26600  0.73900  0.64100  Biso   1.000  H
  Mo7      1.0000 0.65039  0.24092  0.63006  Biso   1.000  Mo
  Mo8      1.0000 0.59947  0.18627  0.38585  Biso   1.000  Mo
  Mo9      1.0000 0.77499  0.11297  0.63386  Biso   1.000  Mo
  Mo10     1.0000 0.69183  0.09236  0.38995  Biso   1.000  Mo
  Mo11     1.0000 0.57497  0.26963  0.52488  Biso   1.000  Mo
  Mo12     1.0000 0.79190  0.04962  0.53296  Biso   1.000  Mo
  Na3      1.0000 0.54930  0.08950  0.64550  Biso   1.000  Na
  Na4      1.0000 0.34467  0.07240  0.43202  Biso   1.000  Na
  P5       1.0000 0.63524  0.09803  0.52748  Biso   1.000  P
  P6       1.0000 0.71679  0.92101  0.43929  Biso   1.000  P
  P7       1.0000 0.69123  0.12620  0.74496  Biso   1.000  P
  P8       1.0000 0.46296  0.17567  0.43454  Biso   1.000  P
  O27      1.0000 0.78699  0.15309  0.55307  Biso   1.000  O
  O28      1.0000 0.67003  0.27370  0.54929  Biso   1.000  O
  O29      1.0000 0.74906  0.21829  0.65769  Biso   1.000  O
  O30      1.0000 0.59861  0.15923  0.48758  Biso   1.000  O
  O31      1.0000 0.69242  0.19276  0.42070  Biso   1.000  O
  O32      1.0000 0.56189  0.21465  0.59675  Biso   1.000  O
  O33      1.0000 0.59923  0.08182  0.37580  Biso   1.000  O
  O34      1.0000 0.78748  0.08561  0.44036  Biso   1.000  O
  O35      1.0000 0.68596  0.06759  0.49072  Biso   1.000  O
  O36      1.0000 0.67179  0.13217  0.58833  Biso   1.000  O
  O37      1.0000 0.50189  0.17832  0.38190  Biso   1.000  O
  O38      1.0000 0.58929  0.28361  0.43261  Biso   1.000  O
  O39      1.0000 0.59157  0.03905  0.54296  Biso   1.000  O
  O40      1.0000 0.69761  0.97935  0.38814  Biso   1.000  O
  O41      1.0000 0.75802  0.01426  0.60313  Biso   1.000  O
  O42      1.0000 0.46073  0.10186  0.46216  Biso   1.000  O
  O43      1.0000 0.48533  0.23507  0.48296  Biso   1.000  O
  O44      1.0000 0.64025  0.17030  0.70117  Biso   1.000  O
  O45      1.0000 0.73197  0.08150  0.70674  Biso   1.000  O
  O46      1.0000 0.39104  0.19520  0.40592  Biso   1.000  O
  O47      1.0000 0.76760  0.95076  0.49264  Biso   1.000  O
  O48      1.0000 0.64891  0.06930  0.77337  Biso   1.000  O
  O49      1.0000 0.45880  0.03510  0.58330  Biso   1.000  O
  O50      1.0000 0.75280  0.85990  0.41070  Biso   1.000  O
  O51      1.0000 0.65920  0.89230  0.46210  Biso   1.000  O
  O52      1.0000 0.73163  0.16920  0.79567  Biso   1.000  O
  H9       1.0000 0.66300  0.05600  0.80600  Biso   1.000  H
  H10      1.0000 0.74200  0.85600  0.37300  Biso   1.000  H
  H11      1.0000 0.61900  0.30700  0.43200  Biso   1.000  H
  H12      1.0000 0.44400  0.00300  0.59800  Biso   1.000  H
  H13      1.0000 0.80300  0.12200  0.44300  Biso   1.000  H
  H14      1.0000 0.38000  0.21400  0.37000  Biso   1.000  H
  H15      1.0000 0.41700  0.06100  0.56800  Biso   1.000  H
  H16      1.0000 0.76600  0.23900  0.64100  Biso   1.000  H
  Mo13     1.0000 0.84961  0.25908  0.36994  Biso   1.000  Mo
  Mo14     1.0000 0.90053  0.31373  0.61415  Biso   1.000  Mo
  Mo15     1.0000 0.72501  0.38703  0.36614  Biso   1.000  Mo
  Mo16     1.0000 0.80817  0.40764  0.61005  Biso   1.000  Mo
  Mo17     1.0000 0.92503  0.23037  0.47512  Biso   1.000  Mo
  Mo18     1.0000 0.70810  0.45038  0.46704  Biso   1.000  Mo
  Na5      1.0000 0.95070  0.41050  0.35450  Biso   1.000  Na
  Na6      1.0000 0.15533  0.42760  0.56798  Biso   1.000  Na
  P9       1.0000 0.86476  0.40197  0.47252  Biso   1.000  P
  P10      1.0000 0.78321  0.57899  0.56071  Biso   1.000  P
  P11      1.0000 0.80877  0.37380  0.25504  Biso   1.000  P
  P12      1.0000 0.03704  0.32433  0.56546  Biso   1.000  P
  O53      1.0000 0.71301  0.34691  0.44693  Biso   1.000  O
  O54      1.0000 0.82997  0.22630  0.45071  Biso   1.000  O
  O55      1.0000 0.75094  0.28171  0.34231  Biso   1.000  O
  O56      1.0000 0.90139  0.34077  0.51242  Biso   1.000  O
  O57      1.0000 0.80758  0.30724  0.57930  Biso   1.000  O
  O58      1.0000 0.93811  0.28535  0.40325  Biso   1.000  O
  O59      1.0000 0.90077  0.41818  0.62420  Biso   1.000  O
  O60      1.0000 0.71252  0.41439  0.55964  Biso   1.000  O
  O61      1.0000 0.81404  0.43241  0.50928  Biso   1.000  O
  O62      1.0000 0.82821  0.36783  0.41167  Biso   1.000  O
  O63      1.0000 0.99811  0.32168  0.61810  Biso   1.000  O
  O64      1.0000 0.91071  0.21639  0.56739  Biso   1.000  O
  O65      1.0000 0.90843  0.46095  0.45704  Biso   1.000  O
  O66      1.0000 0.80239  0.52065  0.61186  Biso   1.000  O
  O67      1.0000 0.74198  0.48574  0.39687  Biso   1.000  O
  O68      1.0000 0.03927  0.39814  0.53784  Biso   1.000  O
  O69      1.0000 0.01467  0.26493  0.51704  Biso   1.000  O
  O70      1.0000 0.85975  0.32970  0.29883  Biso   1.000  O
  O71      1.0000 0.76803  0.41850  0.29326  Biso   1.000  O
  O72      1.0000 0.10896  0.30480  0.59408  Biso   1.000  O
  O73      1.0000 0.73240  0.54924  0.50736  Biso   1.000  O
  O74      1.0000 0.85109  0.43070  0.22663  Biso   1.000  O
  O75      1.0000 0.04120  0.46490  0.41670  Biso   1.000  O
  O76      1.0000 0.74720  0.64010  0.58930  Biso   1.000  O
  O77      1.0000 0.84080  0.60770  0.53790  Biso   1.000  O
  O78      1.0000 0.76837  0.33080  0.20433  Biso   1.000  O
  H17      1.0000 0.83700  0.44400  0.19400  Biso   1.000  H
  H18      1.0000 0.75800  0.64400  0.62700  Biso   1.000  H
  H19      1.0000 0.88100  0.19300  0.56800  Biso   1.000  H
  H20      1.0000 0.05600  0.49700  0.40200  Biso   1.000  H
  H21      1.0000 0.69700  0.37800  0.55700  Biso   1.000  H
  H22      1.0000 0.12000  0.28600  0.63000  Biso   1.000  H
  H23      1.0000 0.08300  0.43900  0.43200  Biso   1.000  H
  H24      1.0000 0.73400  0.26100  0.35900  Biso   1.000  H
  Mo19     1.0000 0.34961  0.75908  0.36994  Biso   1.000  Mo
  Mo20     1.0000 0.40053  0.81373  0.61415  Biso   1.000  Mo
  Mo21     1.0000 0.22501  0.88703  0.36614  Biso   1.000  Mo
  Mo22     1.0000 0.30817  0.90764  0.61005  Biso   1.000  Mo
  Mo23     1.0000 0.42503  0.73037  0.47512  Biso   1.000  Mo
  Mo24     1.0000 0.20810  0.95038  0.46704  Biso   1.000  Mo
  Na7      1.0000 0.45070  0.91050  0.35450  Biso   1.000  Na
  Na8      1.0000 0.65533  0.92760  0.56798  Biso   1.000  Na
  P13      1.0000 0.36476  0.90197  0.47252  Biso   1.000  P
  P14      1.0000 0.28321  0.07899  0.56071  Biso   1.000  P
  P15      1.0000 0.30877  0.87380  0.25504  Biso   1.000  P
  P16      1.0000 0.53704  0.82433  0.56546  Biso   1.000  P
  O79      1.0000 0.21301  0.84691  0.44693  Biso   1.000  O
  O80      1.0000 0.32997  0.72630  0.45071  Biso   1.000  O
  O81      1.0000 0.25094  0.78171  0.34231  Biso   1.000  O
  O82      1.0000 0.40139  0.84077  0.51242  Biso   1.000  O
  O83      1.0000 0.30758  0.80724  0.57930  Biso   1.000  O
  O84      1.0000 0.43811  0.78535  0.40325  Biso   1.000  O
  O85      1.0000 0.40077  0.91818  0.62420  Biso   1.000  O
  O86      1.0000 0.21252  0.91439  0.55964  Biso   1.000  O
  O87      1.0000 0.31404  0.93241  0.50928  Biso   1.000  O
  O88      1.0000 0.32821  0.86783  0.41167  Biso   1.000  O
  O89      1.0000 0.49811  0.82168  0.61810  Biso   1.000  O
  O90      1.0000 0.41071  0.71639  0.56739  Biso   1.000  O
  O91      1.0000 0.40843  0.96095  0.45704  Biso   1.000  O
  O92      1.0000 0.30239  0.02065  0.61186  Biso   1.000  O
  O93      1.0000 0.24198  0.98574  0.39687  Biso   1.000  O
  O94      1.0000 0.53927  0.89814  0.53784  Biso   1.000  O
  O95      1.0000 0.51467  0.76493  0.51704  Biso   1.000  O
  O96      1.0000 0.35975  0.82970  0.29883  Biso   1.000  O
  O97      1.0000 0.26803  0.91850  0.29326  Biso   1.000  O
  O98      1.0000 0.60896  0.80480  0.59408  Biso   1.000  O
  O99      1.0000 0.23240  0.04924  0.50736  Biso   1.000  O
  O100     1.0000 0.35109  0.93070  0.22663  Biso   1.000  O
  O101     1.0000 0.54120  0.96490  0.41670  Biso   1.000  O
  O102     1.0000 0.24720  0.14010  0.58930  Biso   1.000  O
  O103     1.0000 0.34080  0.10770  0.53790  Biso   1.000  O
  O104     1.0000 0.26837  0.83080  0.20433  Biso   1.000  O
  H25      1.0000 0.33700  0.94400  0.19400  Biso   1.000  H
  H26      1.0000 0.25800  0.14400  0.62700  Biso   1.000  H
  H27      1.0000 0.38100  0.69300  0.56800  Biso   1.000  H
  H28      1.0000 0.55600  0.99700  0.40200  Biso   1.000  H
  H29      1.0000 0.19700  0.87800  0.55700  Biso   1.000  H
  H30      1.0000 0.62000  0.78600  0.63000  Biso   1.000  H
  H31      1.0000 0.58300  0.93900  0.43200  Biso   1.000  H
  H32      1.0000 0.23400  0.76100  0.35900  Biso   1.000  H
  Mn1      1.0000 0.00000  0.50000  0.50000  Biso   1.000  Mn
  Mn2      1.0000 0.50000  0.00000  0.50000  Biso   1.000  Mn
  Mn3      1.0000 0.25000  0.75000  0.50000  Biso   1.000  Mn
  Mn4      1.0000 0.75000  0.25000  0.50000  Biso   1.000  Mn
  Mo25     1.0000 0.84961  0.74092  0.86994  Biso   1.000  Mo
  Mo26     1.0000 0.90053  0.68627  0.11415  Biso   1.000  Mo
  Mo27     1.0000 0.72501  0.61297  0.86614  Biso   1.000  Mo
  Mo28     1.0000 0.80817  0.59236  0.11005  Biso   1.000  Mo
  Mo29     1.0000 0.92503  0.76963  0.97512  Biso   1.000  Mo
  Mo30     1.0000 0.70810  0.54962  0.96704  Biso   1.000  Mo
  Na9      1.0000 0.95070  0.58950  0.85450  Biso   1.000  Na
  Na10     1.0000 0.15533  0.57240  0.06798  Biso   1.000  Na
  P17      1.0000 0.86476  0.59803  0.97252  Biso   1.000  P
  P18      1.0000 0.78321  0.42101  0.06071  Biso   1.000  P
  P19      1.0000 0.80877  0.62620  0.75504  Biso   1.000  P
  P20      1.0000 0.03704  0.67567  0.06546  Biso   1.000  P
  O105     1.0000 0.71301  0.65309  0.94693  Biso   1.000  O
  O106     1.0000 0.82997  0.77370  0.95071  Biso   1.000  O
  O107     1.0000 0.75094  0.71829  0.84231  Biso   1.000  O
  O108     1.0000 0.90139  0.65923  0.01242  Biso   1.000  O
  O109     1.0000 0.80758  0.69276  0.07930  Biso   1.000  O
  O110     1.0000 0.93811  0.71465  0.90325  Biso   1.000  O
  O111     1.0000 0.90077  0.58182  0.12420  Biso   1.000  O
  O112     1.0000 0.71252  0.58561  0.05964  Biso   1.000  O
  O113     1.0000 0.81404  0.56759  0.00928  Biso   1.000  O
  O114     1.0000 0.82821  0.63217  0.91167  Biso   1.000  O
  O115     1.0000 0.99811  0.67832  0.11810  Biso   1.000  O
  O116     1.0000 0.91071  0.78361  0.06739  Biso   1.000  O
  O117     1.0000 0.90843  0.53905  0.95704  Biso   1.000  O
  O118     1.0000 0.80239  0.47935  0.11186  Biso   1.000  O
  O119     1.0000 0.74198  0.51426  0.89687  Biso   1.000  O
  O120     1.0000 0.03927  0.60186  0.03784  Biso   1.000  O
  O121     1.0000 0.01467  0.73507  0.01704  Biso   1.000  O
  O122     1.0000 0.85975  0.67030  0.79883  Biso   1.000  O
  O123     1.0000 0.76803  0.58150  0.79326  Biso   1.000  O
  O124     1.0000 0.10896  0.69520  0.09408  Biso   1.000  O
  O125     1.0000 0.73240  0.45076  0.00736  Biso   1.000  O
  O126     1.0000 0.85109  0.56930  0.72663  Biso   1.000  O
  O127     1.0000 0.04120  0.53510  0.91670  Biso   1.000  O
  O128     1.0000 0.74720  0.35990  0.08930  Biso   1.000  O
  O129     1.0000 0.84080  0.39230  0.03790  Biso   1.000  O
  O130     1.0000 0.76837  0.66920  0.70433  Biso   1.000  O
  H33      1.0000 0.83700  0.55600  0.69400  Biso   1.000  H
  H34      1.0000 0.75800  0.35600  0.12700  Biso   1.000  H
  H35      1.0000 0.88100  0.80700  0.06800  Biso   1.000  H
  H36      1.0000 0.05600  0.50300  0.90200  Biso   1.000  H
  H37      1.0000 0.69700  0.62200  0.05700  Biso   1.000  H
  H38      1.0000 0.12000  0.71400  0.13000  Biso   1.000  H
  H39      1.0000 0.08300  0.56100  0.93200  Biso   1.000  H
  H40      1.0000 0.73400  0.73900  0.85900  Biso   1.000  H
  Mo31     1.0000 0.34961  0.24092  0.86994  Biso   1.000  Mo
  Mo32     1.0000 0.40053  0.18627  0.11415  Biso   1.000  Mo
  Mo33     1.0000 0.22501  0.11297  0.86614  Biso   1.000  Mo
  Mo34     1.0000 0.30817  0.09236  0.11005  Biso   1.000  Mo
  Mo35     1.0000 0.42503  0.26963  0.97512  Biso   1.000  Mo
  Mo36     1.0000 0.20810  0.04962  0.96704  Biso   1.000  Mo
  Na11     1.0000 0.45070  0.08950  0.85450  Biso   1.000  Na
  Na12     1.0000 0.65533  0.07240  0.06798  Biso   1.000  Na
  P21      1.0000 0.36476  0.09803  0.97252  Biso   1.000  P
  P22      1.0000 0.28321  0.92101  0.06071  Biso   1.000  P
  P23      1.0000 0.30877  0.12620  0.75504  Biso   1.000  P
  P24      1.0000 0.53704  0.17567  0.06546  Biso   1.000  P
  O131     1.0000 0.21301  0.15309  0.94693  Biso   1.000  O
  O132     1.0000 0.32997  0.27370  0.95071  Biso   1.000  O
  O133     1.0000 0.25094  0.21829  0.84231  Biso   1.000  O
  O134     1.0000 0.40139  0.15923  0.01242  Biso   1.000  O
  O135     1.0000 0.30758  0.19276  0.07930  Biso   1.000  O
  O136     1.0000 0.43811  0.21465  0.90325  Biso   1.000  O
  O137     1.0000 0.40077  0.08182  0.12420  Biso   1.000  O
  O138     1.0000 0.21252  0.08561  0.05964  Biso   1.000  O
  O139     1.0000 0.31404  0.06759  0.00928  Biso   1.000  O
  O140     1.0000 0.32821  0.13217  0.91167  Biso   1.000  O
  O141     1.0000 0.49811  0.17832  0.11810  Biso   1.000  O
  O142     1.0000 0.41071  0.28361  0.06739  Biso   1.000  O
  O143     1.0000 0.40843  0.03905  0.95704  Biso   1.000  O
  O144     1.0000 0.30239  0.97935  0.11186  Biso   1.000  O
  O145     1.0000 0.24198  0.01426  0.89687  Biso   1.000  O
  O146     1.0000 0.53927  0.10186  0.03784  Biso   1.000  O
  O147     1.0000 0.51467  0.23507  0.01704  Biso   1.000  O
  O148     1.0000 0.35975  0.17030  0.79883  Biso   1.000  O
  O149     1.0000 0.26803  0.08150  0.79326  Biso   1.000  O
  O150     1.0000 0.60896  0.19520  0.09408  Biso   1.000  O
  O151     1.0000 0.23240  0.95076  0.00736  Biso   1.000  O
  O152     1.0000 0.35109  0.06930  0.72663  Biso   1.000  O
  O153     1.0000 0.54120  0.03510  0.91670  Biso   1.000  O
  O154     1.0000 0.24720  0.85990  0.08930  Biso   1.000  O
  O155     1.0000 0.34080  0.89230  0.03790  Biso   1.000  O
  O156     1.0000 0.26837  0.16920  0.70433  Biso   1.000  O
  H41      1.0000 0.33700  0.05600  0.69400  Biso   1.000  H
  H42      1.0000 0.25800  0.85600  0.12700  Biso   1.000  H
  H43      1.0000 0.38100  0.30700  0.06800  Biso   1.000  H
  H44      1.0000 0.55600  0.00300  0.90200  Biso   1.000  H
  H45      1.0000 0.19700  0.12200  0.05700  Biso   1.000  H
  H46      1.0000 0.62000  0.21400  0.13000  Biso   1.000  H
  H47      1.0000 0.58300  0.06100  0.93200  Biso   1.000  H
  H48      1.0000 0.23400  0.23900  0.85900  Biso   1.000  H
  Mo37     1.0000 0.15039  0.25908  0.13006  Biso   1.000  Mo
  Mo38     1.0000 0.09947  0.31373  0.88585  Biso   1.000  Mo
  Mo39     1.0000 0.27499  0.38703  0.13386  Biso   1.000  Mo
  Mo40     1.0000 0.19183  0.40764  0.88995  Biso   1.000  Mo
  Mo41     1.0000 0.07497  0.23037  0.02488  Biso   1.000  Mo
  Mo42     1.0000 0.29190  0.45038  0.03296  Biso   1.000  Mo
  Na13     1.0000 0.04930  0.41050  0.14550  Biso   1.000  Na
  Na14     1.0000 0.84467  0.42760  0.93202  Biso   1.000  Na
  P25      1.0000 0.13524  0.40197  0.02748  Biso   1.000  P
  P26      1.0000 0.21679  0.57899  0.93929  Biso   1.000  P
  P27      1.0000 0.19123  0.37380  0.24496  Biso   1.000  P
  P28      1.0000 0.96296  0.32433  0.93454  Biso   1.000  P
  O157     1.0000 0.28699  0.34691  0.05307  Biso   1.000  O
  O158     1.0000 0.17003  0.22630  0.04929  Biso   1.000  O
  O159     1.0000 0.24906  0.28171  0.15769  Biso   1.000  O
  O160     1.0000 0.09861  0.34077  0.98758  Biso   1.000  O
  O161     1.0000 0.19242  0.30724  0.92070  Biso   1.000  O
  O162     1.0000 0.06189  0.28535  0.09675  Biso   1.000  O
  O163     1.0000 0.09923  0.41818  0.87580  Biso   1.000  O
  O164     1.0000 0.28748  0.41439  0.94036  Biso   1.000  O
  O165     1.0000 0.18596  0.43241  0.99072  Biso   1.000  O
  O166     1.0000 0.17179  0.36783  0.08833  Biso   1.000  O
  O167     1.0000 0.00189  0.32168  0.88190  Biso   1.000  O
  O168     1.0000 0.08929  0.21639  0.93261  Biso   1.000  O
  O169     1.0000 0.09157  0.46095  0.04296  Biso   1.000  O
  O170     1.0000 0.19761  0.52065  0.88814  Biso   1.000  O
  O171     1.0000 0.25802  0.48574  0.10313  Biso   1.000  O
  O172     1.0000 0.96073  0.39814  0.96216  Biso   1.000  O
  O173     1.0000 0.98533  0.26493  0.98296  Biso   1.000  O
  O174     1.0000 0.14025  0.32970  0.20117  Biso   1.000  O
  O175     1.0000 0.23197  0.41850  0.20674  Biso   1.000  O
  O176     1.0000 0.89104  0.30480  0.90592  Biso   1.000  O
  O177     1.0000 0.26760  0.54924  0.99264  Biso   1.000  O
  O178     1.0000 0.14891  0.43070  0.27337  Biso   1.000  O
  O179     1.0000 0.95880  0.46490  0.08330  Biso   1.000  O
  O180     1.0000 0.25280  0.64010  0.91070  Biso   1.000  O
  O181     1.0000 0.15920  0.60770  0.96210  Biso   1.000  O
  O182     1.0000 0.23163  0.33080  0.29567  Biso   1.000  O
  H49      1.0000 0.16300  0.44400  0.30600  Biso   1.000  H
  H50      1.0000 0.24200  0.64400  0.87300  Biso   1.000  H
  H51      1.0000 0.11900  0.19300  0.93200  Biso   1.000  H
  H52      1.0000 0.94400  0.49700  0.09800  Biso   1.000  H
  H53      1.0000 0.30300  0.37800  0.94300  Biso   1.000  H
  H54      1.0000 0.88000  0.28600  0.87000  Biso   1.000  H
  H55      1.0000 0.91700  0.43900  0.06800  Biso   1.000  H
  H56      1.0000 0.26600  0.26100  0.14100  Biso   1.000  H
  Mo43     1.0000 0.65039  0.75908  0.13006  Biso   1.000  Mo
  Mo44     1.0000 0.59947  0.81373  0.88585  Biso   1.000  Mo
  Mo45     1.0000 0.77499  0.88703  0.13386  Biso   1.000  Mo
  Mo46     1.0000 0.69183  0.90764  0.88995  Biso   1.000  Mo
  Mo47     1.0000 0.57497  0.73037  0.02488  Biso   1.000  Mo
  Mo48     1.0000 0.79190  0.95038  0.03296  Biso   1.000  Mo
  Na15     1.0000 0.54930  0.91050  0.14550  Biso   1.000  Na
  Na16     1.0000 0.34467  0.92760  0.93202  Biso   1.000  Na
  P29      1.0000 0.63524  0.90197  0.02748  Biso   1.000  P
  P30      1.0000 0.71679  0.07899  0.93929  Biso   1.000  P
  P31      1.0000 0.69123  0.87380  0.24496  Biso   1.000  P
  P32      1.0000 0.46296  0.82433  0.93454  Biso   1.000  P
  O183     1.0000 0.78699  0.84691  0.05307  Biso   1.000  O
  O184     1.0000 0.67003  0.72630  0.04929  Biso   1.000  O
  O185     1.0000 0.74906  0.78171  0.15769  Biso   1.000  O
  O186     1.0000 0.59861  0.84077  0.98758  Biso   1.000  O
  O187     1.0000 0.69242  0.80724  0.92070  Biso   1.000  O
  O188     1.0000 0.56189  0.78535  0.09675  Biso   1.000  O
  O189     1.0000 0.59923  0.91818  0.87580  Biso   1.000  O
  O190     1.0000 0.78748  0.91439  0.94036  Biso   1.000  O
  O191     1.0000 0.68596  0.93241  0.99072  Biso   1.000  O
  O192     1.0000 0.67179  0.86783  0.08833  Biso   1.000  O
  O193     1.0000 0.50189  0.82168  0.88190  Biso   1.000  O
  O194     1.0000 0.58929  0.71639  0.93261  Biso   1.000  O
  O195     1.0000 0.59157  0.96095  0.04296  Biso   1.000  O
  O196     1.0000 0.69761  0.02065  0.88814  Biso   1.000  O
  O197     1.0000 0.75802  0.98574  0.10313  Biso   1.000  O
  O198     1.0000 0.46073  0.89814  0.96216  Biso   1.000  O
  O199     1.0000 0.48533  0.76493  0.98296  Biso   1.000  O
  O200     1.0000 0.64025  0.82970  0.20117  Biso   1.000  O
  O201     1.0000 0.73197  0.91850  0.20674  Biso   1.000  O
  O202     1.0000 0.39104  0.80480  0.90592  Biso   1.000  O
  O203     1.0000 0.76760  0.04924  0.99264  Biso   1.000  O
  O204     1.0000 0.64891  0.93070  0.27337  Biso   1.000  O
  O205     1.0000 0.45880  0.96490  0.08330  Biso   1.000  O
  O206     1.0000 0.75280  0.14010  0.91070  Biso   1.000  O
  O207     1.0000 0.65920  0.10770  0.96210  Biso   1.000  O
  O208     1.0000 0.73163  0.83080  0.29567  Biso   1.000  O
  H57      1.0000 0.66300  0.94400  0.30600  Biso   1.000  H
  H58      1.0000 0.74200  0.14400  0.87300  Biso   1.000  H
  H59      1.0000 0.61900  0.69300  0.93200  Biso   1.000  H
  H60      1.0000 0.44400  0.99700  0.09800  Biso   1.000  H
  H61      1.0000 0.80300  0.87800  0.94300  Biso   1.000  H
  H62      1.0000 0.38000  0.78600  0.87000  Biso   1.000  H
  H63      1.0000 0.41700  0.93900  0.06800  Biso   1.000  H
  H64      1.0000 0.76600  0.76100  0.14100  Biso   1.000  H
  Mn5      1.0000 0.00000  0.50000  0.00000  Biso   1.000  Mn
  Mn6      1.0000 0.50000  0.00000  0.00000  Biso   1.000  Mn
  Mn7      1.0000 0.75000  0.75000  0.00000  Biso   1.000  Mn
  Mn8      1.0000 0.25000  0.25000  0.00000  Biso   1.000  Mn
