data_image0
_cell_length_a       17.059
_cell_length_b       11.247
_cell_length_c       24.52
_cell_angle_alpha    90
_cell_angle_beta     90
_cell_angle_gamma    90

_symmetry_space_group_name_H-M    "P 1"
_symmetry_int_tables_number       1

loop_
  _symmetry_equiv_pos_as_xyz
  'x, y, z'

loop_
  _atom_site_label
  _atom_site_occupancy
  _atom_site_fract_x
  _atom_site_fract_y
  _atom_site_fract_z
  _atom_site_thermal_displace_type
  _atom_site_B_iso_or_equiv
  _atom_site_type_symbol
  Ag1      1.0000 0.16478  0.15356  0.42122  Biso   1.000  Ag
  C1       1.0000 0.98410  0.20340  0.45320  Biso   1.000  C
  H1       1.0000 0.00610  0.20520  0.48930  Biso   1.000  H
  H2       1.0000 0.97320  0.12210  0.44420  Biso   1.000  H
  C2       1.0000 0.00760  0.24870  0.35890  Biso   1.000  C
  H3       1.0000 0.99680  0.16780  0.34880  Biso   1.000  H
  H4       1.0000 0.04460  0.28040  0.33320  Biso   1.000  H
  C3       1.0000 0.05700  0.37810  0.42880  Biso   1.000  C
  H5       1.0000 0.09390  0.41150  0.40360  Biso   1.000  H
  H6       1.0000 0.07980  0.38130  0.46460  Biso   1.000  H
  C4       1.0000 0.92990  0.39570  0.46680  Biso   1.000  C
  H7       1.0000 0.88230  0.44140  0.46680  Biso   1.000  H
  H8       1.0000 0.95160  0.39870  0.50280  Biso   1.000  H
  C5       1.0000 0.95130  0.44390  0.37360  Biso   1.000  C
  H9       1.0000 0.98720  0.47870  0.34810  Biso   1.000  H
  H10      1.0000 0.90400  0.49000  0.37310  Biso   1.000  H
  C6       1.0000 0.87800  0.26890  0.39790  Biso   1.000  C
  H11      1.0000 0.86610  0.18820  0.38810  Biso   1.000  H
  H12      1.0000 0.83000  0.31340  0.39760  Biso   1.000  H
  C7       1.0000 0.22830  0.89020  0.40460  Biso   1.000  C
  H13      1.0000 0.23980  0.89700  0.44280  Biso   1.000  H
  H14      1.0000 0.27080  0.92540  0.38470  Biso   1.000  H
  C8       1.0000 0.20910  0.75810  0.33000  Biso   1.000  C
  H15      1.0000 0.20680  0.67680  0.31810  Biso   1.000  H
  H16      1.0000 0.25210  0.79590  0.31160  Biso   1.000  H
  C9       1.0000 0.15500  0.71180  0.41790  Biso   1.000  C
  H17      1.0000 0.16390  0.71550  0.45650  Biso   1.000  H
  H18      1.0000 0.15000  0.62960  0.40800  Biso   1.000  H
  C10      1.0000 0.06890  0.76480  0.34630  Biso   1.000  C
  H19      1.0000 0.02070  0.80400  0.33710  Biso   1.000  H
  H20      1.0000 0.06430  0.68280  0.33600  Biso   1.000  H
  C11      1.0000 0.14250  0.94540  0.33170  Biso   1.000  C
  H21      1.0000 0.18570  0.98090  0.31260  Biso   1.000  H
  H22      1.0000 0.09580  0.98790  0.32190  Biso   1.000  H
  C12      1.0000 0.08910  0.89710  0.42060  Biso   1.000  C
  H23      1.0000 0.04130  0.93810  0.41200  Biso   1.000  H
  H24      1.0000 0.09710  0.90240  0.45920  Biso   1.000  H
  N1       1.0000 0.04260  0.25160  0.41380  Biso   1.000  N
  N2       1.0000 0.98550  0.44980  0.42810  Biso   1.000  N
  N3       1.0000 0.93330  0.31990  0.35630  Biso   1.000  N
  N4       1.0000 0.91130  0.27060  0.45300  Biso   1.000  N
  N5       1.0000 0.15590  0.95630  0.39170  Biso   1.000  N
  N6       1.0000 0.22280  0.76300  0.38933  Biso   1.000  N
  N7       1.0000 0.08200  0.77240  0.40520  Biso   1.000  N
  N8       1.0000 0.13480  0.82020  0.31494  Biso   1.000  N
  Ag2      1.0000 0.39132  0.30784  0.22743  Biso   1.000  Ag
  Ag3      1.0000 0.83522  0.65356  0.07878  Biso   1.000  Ag
  C13      1.0000 0.01590  0.70340  0.04680  Biso   1.000  C
  H25      1.0000 0.99390  0.70520  0.01070  Biso   1.000  H
  H26      1.0000 0.02680  0.62210  0.05580  Biso   1.000  H
  C14      1.0000 0.99240  0.74870  0.14110  Biso   1.000  C
  H27      1.0000 0.00320  0.66780  0.15120  Biso   1.000  H
  H28      1.0000 0.95540  0.78040  0.16680  Biso   1.000  H
  C15      1.0000 0.94300  0.87810  0.07120  Biso   1.000  C
  H29      1.0000 0.90610  0.91150  0.09640  Biso   1.000  H
  H30      1.0000 0.92020  0.88130  0.03540  Biso   1.000  H
  C16      1.0000 0.07010  0.89570  0.03320  Biso   1.000  C
  H31      1.0000 0.11770  0.94140  0.03320  Biso   1.000  H
  H32      1.0000 0.04840  0.89870  0.99720  Biso   1.000  H
  C17      1.0000 0.04870  0.94390  0.12640  Biso   1.000  C
  H33      1.0000 0.01280  0.97870  0.15190  Biso   1.000  H
  H34      1.0000 0.09600  0.99000  0.12690  Biso   1.000  H
  C18      1.0000 0.12200  0.76890  0.10210  Biso   1.000  C
  H35      1.0000 0.13390  0.68820  0.11190  Biso   1.000  H
  H36      1.0000 0.17000  0.81340  0.10240  Biso   1.000  H
  C19      1.0000 0.77170  0.39020  0.09540  Biso   1.000  C
  H37      1.0000 0.76020  0.39700  0.05720  Biso   1.000  H
  H38      1.0000 0.72920  0.42540  0.11530  Biso   1.000  H
  C20      1.0000 0.79090  0.25810  0.17000  Biso   1.000  C
  H39      1.0000 0.79320  0.17680  0.18190  Biso   1.000  H
  H40      1.0000 0.74790  0.29590  0.18840  Biso   1.000  H
  C21      1.0000 0.84500  0.21180  0.08210  Biso   1.000  C
  H41      1.0000 0.83610  0.21550  0.04350  Biso   1.000  H
  H42      1.0000 0.85000  0.12960  0.09200  Biso   1.000  H
  C22      1.0000 0.93110  0.26480  0.15370  Biso   1.000  C
  H43      1.0000 0.97930  0.30400  0.16290  Biso   1.000  H
  H44      1.0000 0.93570  0.18280  0.16400  Biso   1.000  H
  C23      1.0000 0.85750  0.44540  0.16830  Biso   1.000  C
  H45      1.0000 0.81430  0.48090  0.18740  Biso   1.000  H
  H46      1.0000 0.90420  0.48790  0.17810  Biso   1.000  H
  C24      1.0000 0.91090  0.39710  0.07940  Biso   1.000  C
  H47      1.0000 0.95870  0.43810  0.08800  Biso   1.000  H
  H48      1.0000 0.90290  0.40240  0.04080  Biso   1.000  H
  N9       1.0000 0.95740  0.75160  0.08620  Biso   1.000  N
  N10      1.0000 0.01450  0.94980  0.07190  Biso   1.000  N
  N11      1.0000 0.06670  0.81990  0.14370  Biso   1.000  N
  N12      1.0000 0.08870  0.77060  0.04700  Biso   1.000  N
  N13      1.0000 0.84410  0.45630  0.10830  Biso   1.000  N
  N14      1.0000 0.77720  0.26300  0.11067  Biso   1.000  N
  N15      1.0000 0.91800  0.27240  0.09480  Biso   1.000  N
  N16      1.0000 0.86520  0.32020  0.18506  Biso   1.000  N
  Ag4      1.0000 0.60868  0.80784  0.27257  Biso   1.000  Ag
  Ag5      1.0000 0.89132  0.30784  0.27257  Biso   1.000  Ag
  Ag6      1.0000 0.66478  0.15356  0.07878  Biso   1.000  Ag
  C25      1.0000 0.48410  0.20340  0.04680  Biso   1.000  C
  H49      1.0000 0.50610  0.20520  0.01070  Biso   1.000  H
  H50      1.0000 0.47320  0.12210  0.05580  Biso   1.000  H
  C26      1.0000 0.50760  0.24870  0.14110  Biso   1.000  C
  H51      1.0000 0.49680  0.16780  0.15120  Biso   1.000  H
  H52      1.0000 0.54460  0.28040  0.16680  Biso   1.000  H
  C27      1.0000 0.55700  0.37810  0.07120  Biso   1.000  C
  H53      1.0000 0.59390  0.41150  0.09640  Biso   1.000  H
  H54      1.0000 0.57980  0.38130  0.03540  Biso   1.000  H
  C28      1.0000 0.42990  0.39570  0.03320  Biso   1.000  C
  H55      1.0000 0.38230  0.44140  0.03320  Biso   1.000  H
  H56      1.0000 0.45160  0.39870  0.99720  Biso   1.000  H
  C29      1.0000 0.45130  0.44390  0.12640  Biso   1.000  C
  H57      1.0000 0.48720  0.47870  0.15190  Biso   1.000  H
  H58      1.0000 0.40400  0.49000  0.12690  Biso   1.000  H
  C30      1.0000 0.37800  0.26890  0.10210  Biso   1.000  C
  H59      1.0000 0.36610  0.18820  0.11190  Biso   1.000  H
  H60      1.0000 0.33000  0.31340  0.10240  Biso   1.000  H
  C31      1.0000 0.72830  0.89020  0.09540  Biso   1.000  C
  H61      1.0000 0.73980  0.89700  0.05720  Biso   1.000  H
  H62      1.0000 0.77080  0.92540  0.11530  Biso   1.000  H
  C32      1.0000 0.70910  0.75810  0.17000  Biso   1.000  C
  H63      1.0000 0.70680  0.67680  0.18190  Biso   1.000  H
  H64      1.0000 0.75210  0.79590  0.18840  Biso   1.000  H
  C33      1.0000 0.65500  0.71180  0.08210  Biso   1.000  C
  H65      1.0000 0.66390  0.71550  0.04350  Biso   1.000  H
  H66      1.0000 0.65000  0.62960  0.09200  Biso   1.000  H
  C34      1.0000 0.56890  0.76480  0.15370  Biso   1.000  C
  H67      1.0000 0.52070  0.80400  0.16290  Biso   1.000  H
  H68      1.0000 0.56430  0.68280  0.16400  Biso   1.000  H
  C35      1.0000 0.64250  0.94540  0.16830  Biso   1.000  C
  H69      1.0000 0.68570  0.98090  0.18740  Biso   1.000  H
  H70      1.0000 0.59580  0.98790  0.17810  Biso   1.000  H
  C36      1.0000 0.58910  0.89710  0.07940  Biso   1.000  C
  H71      1.0000 0.54130  0.93810  0.08800  Biso   1.000  H
  H72      1.0000 0.59710  0.90240  0.04080  Biso   1.000  H
  N17      1.0000 0.54260  0.25160  0.08620  Biso   1.000  N
  N18      1.0000 0.48550  0.44980  0.07190  Biso   1.000  N
  N19      1.0000 0.43330  0.31990  0.14370  Biso   1.000  N
  N20      1.0000 0.41130  0.27060  0.04700  Biso   1.000  N
  N21      1.0000 0.65590  0.95630  0.10830  Biso   1.000  N
  N22      1.0000 0.72280  0.76300  0.11067  Biso   1.000  N
  N23      1.0000 0.58200  0.77240  0.09480  Biso   1.000  N
  N24      1.0000 0.63480  0.82020  0.18506  Biso   1.000  N
  Ag7      1.0000 0.10868  0.80784  0.22743  Biso   1.000  Ag
  Ag8      1.0000 0.33522  0.65356  0.42122  Biso   1.000  Ag
  C37      1.0000 0.51590  0.70340  0.45320  Biso   1.000  C
  H73      1.0000 0.49390  0.70520  0.48930  Biso   1.000  H
  H74      1.0000 0.52680  0.62210  0.44420  Biso   1.000  H
  C38      1.0000 0.49240  0.74870  0.35890  Biso   1.000  C
  H75      1.0000 0.50320  0.66780  0.34880  Biso   1.000  H
  H76      1.0000 0.45540  0.78040  0.33320  Biso   1.000  H
  C39      1.0000 0.44300  0.87810  0.42880  Biso   1.000  C
  H77      1.0000 0.40610  0.91150  0.40360  Biso   1.000  H
  H78      1.0000 0.42020  0.88130  0.46460  Biso   1.000  H
  C40      1.0000 0.57010  0.89570  0.46680  Biso   1.000  C
  H79      1.0000 0.61770  0.94140  0.46680  Biso   1.000  H
  H80      1.0000 0.54840  0.89870  0.50280  Biso   1.000  H
  C41      1.0000 0.54870  0.94390  0.37360  Biso   1.000  C
  H81      1.0000 0.51280  0.97870  0.34810  Biso   1.000  H
  H82      1.0000 0.59600  0.99000  0.37310  Biso   1.000  H
  C42      1.0000 0.62200  0.76890  0.39790  Biso   1.000  C
  H83      1.0000 0.63390  0.68820  0.38810  Biso   1.000  H
  H84      1.0000 0.67000  0.81340  0.39760  Biso   1.000  H
  C43      1.0000 0.27170  0.39020  0.40460  Biso   1.000  C
  H85      1.0000 0.26020  0.39700  0.44280  Biso   1.000  H
  H86      1.0000 0.22920  0.42540  0.38470  Biso   1.000  H
  C44      1.0000 0.29090  0.25810  0.33000  Biso   1.000  C
  H87      1.0000 0.29320  0.17680  0.31810  Biso   1.000  H
  H88      1.0000 0.24790  0.29590  0.31160  Biso   1.000  H
  C45      1.0000 0.34500  0.21180  0.41790  Biso   1.000  C
  H89      1.0000 0.33610  0.21550  0.45650  Biso   1.000  H
  H90      1.0000 0.35000  0.12960  0.40800  Biso   1.000  H
  C46      1.0000 0.43110  0.26480  0.34630  Biso   1.000  C
  H91      1.0000 0.47930  0.30400  0.33710  Biso   1.000  H
  H92      1.0000 0.43570  0.18280  0.33600  Biso   1.000  H
  C47      1.0000 0.35750  0.44540  0.33170  Biso   1.000  C
  H93      1.0000 0.31430  0.48090  0.31260  Biso   1.000  H
  H94      1.0000 0.40420  0.48790  0.32190  Biso   1.000  H
  C48      1.0000 0.41090  0.39710  0.42060  Biso   1.000  C
  H95      1.0000 0.45870  0.43810  0.41200  Biso   1.000  H
  H96      1.0000 0.40290  0.40240  0.45920  Biso   1.000  H
  N25      1.0000 0.45740  0.75160  0.41380  Biso   1.000  N
  N26      1.0000 0.51450  0.94980  0.42810  Biso   1.000  N
  N27      1.0000 0.56670  0.81990  0.35630  Biso   1.000  N
  N28      1.0000 0.58870  0.77060  0.45300  Biso   1.000  N
  N29      1.0000 0.34410  0.45630  0.39170  Biso   1.000  N
  N30      1.0000 0.27720  0.26300  0.38933  Biso   1.000  N
  N31      1.0000 0.41800  0.27240  0.40520  Biso   1.000  N
  N32      1.0000 0.36520  0.32020  0.31494  Biso   1.000  N
  Ag9      1.0000 0.10868  0.69216  0.72743  Biso   1.000  Ag
  Ag10     1.0000 0.33522  0.84644  0.92122  Biso   1.000  Ag
  C49      1.0000 0.51590  0.79660  0.95320  Biso   1.000  C
  H97      1.0000 0.49390  0.79480  0.98930  Biso   1.000  H
  H98      1.0000 0.52680  0.87790  0.94420  Biso   1.000  H
  C50      1.0000 0.49240  0.75130  0.85890  Biso   1.000  C
  H99      1.0000 0.50320  0.83220  0.84880  Biso   1.000  H
  H100     1.0000 0.45540  0.71960  0.83320  Biso   1.000  H
  C51      1.0000 0.44300  0.62190  0.92880  Biso   1.000  C
  H101     1.0000 0.40610  0.58850  0.90360  Biso   1.000  H
  H102     1.0000 0.42020  0.61870  0.96460  Biso   1.000  H
  C52      1.0000 0.57010  0.60430  0.96680  Biso   1.000  C
  H103     1.0000 0.61770  0.55860  0.96680  Biso   1.000  H
  H104     1.0000 0.54840  0.60130  0.00280  Biso   1.000  H
  C53      1.0000 0.54870  0.55610  0.87360  Biso   1.000  C
  H105     1.0000 0.51280  0.52130  0.84810  Biso   1.000  H
  H106     1.0000 0.59600  0.51000  0.87310  Biso   1.000  H
  C54      1.0000 0.62200  0.73110  0.89790  Biso   1.000  C
  H107     1.0000 0.63390  0.81180  0.88810  Biso   1.000  H
  H108     1.0000 0.67000  0.68660  0.89760  Biso   1.000  H
  C55      1.0000 0.27170  0.10980  0.90460  Biso   1.000  C
  H109     1.0000 0.26020  0.10300  0.94280  Biso   1.000  H
  H110     1.0000 0.22920  0.07460  0.88470  Biso   1.000  H
  C56      1.0000 0.29090  0.24190  0.83000  Biso   1.000  C
  H111     1.0000 0.29320  0.32320  0.81810  Biso   1.000  H
  H112     1.0000 0.24790  0.20410  0.81160  Biso   1.000  H
  C57      1.0000 0.34500  0.28820  0.91790  Biso   1.000  C
  H113     1.0000 0.33610  0.28450  0.95650  Biso   1.000  H
  H114     1.0000 0.35000  0.37040  0.90800  Biso   1.000  H
  C58      1.0000 0.43110  0.23520  0.84630  Biso   1.000  C
  H115     1.0000 0.47930  0.19600  0.83710  Biso   1.000  H
  H116     1.0000 0.43570  0.31720  0.83600  Biso   1.000  H
  C59      1.0000 0.35750  0.05460  0.83170  Biso   1.000  C
  H117     1.0000 0.31430  0.01910  0.81260  Biso   1.000  H
  H118     1.0000 0.40420  0.01210  0.82190  Biso   1.000  H
  C60      1.0000 0.41090  0.10290  0.92060  Biso   1.000  C
  H119     1.0000 0.45870  0.06190  0.91200  Biso   1.000  H
  H120     1.0000 0.40290  0.09760  0.95920  Biso   1.000  H
  N33      1.0000 0.45740  0.74840  0.91380  Biso   1.000  N
  N34      1.0000 0.51450  0.55020  0.92810  Biso   1.000  N
  N35      1.0000 0.56670  0.68010  0.85630  Biso   1.000  N
  N36      1.0000 0.58870  0.72940  0.95300  Biso   1.000  N
  N37      1.0000 0.34410  0.04370  0.89170  Biso   1.000  N
  N38      1.0000 0.27720  0.23700  0.88933  Biso   1.000  N
  N39      1.0000 0.41800  0.22760  0.90520  Biso   1.000  N
  N40      1.0000 0.36520  0.17980  0.81494  Biso   1.000  N
  Ag11     1.0000 0.89132  0.19216  0.77257  Biso   1.000  Ag
  Ag12     1.0000 0.66478  0.34644  0.57878  Biso   1.000  Ag
  C61      1.0000 0.48410  0.29660  0.54680  Biso   1.000  C
  H121     1.0000 0.50610  0.29480  0.51070  Biso   1.000  H
  H122     1.0000 0.47320  0.37790  0.55580  Biso   1.000  H
  C62      1.0000 0.50760  0.25130  0.64110  Biso   1.000  C
  H123     1.0000 0.49680  0.33220  0.65120  Biso   1.000  H
  H124     1.0000 0.54460  0.21960  0.66680  Biso   1.000  H
  C63      1.0000 0.55700  0.12190  0.57120  Biso   1.000  C
  H125     1.0000 0.59390  0.08850  0.59640  Biso   1.000  H
  H126     1.0000 0.57980  0.11870  0.53540  Biso   1.000  H
  C64      1.0000 0.42990  0.10430  0.53320  Biso   1.000  C
  H127     1.0000 0.38230  0.05860  0.53320  Biso   1.000  H
  H128     1.0000 0.45160  0.10130  0.49720  Biso   1.000  H
  C65      1.0000 0.45130  0.05610  0.62640  Biso   1.000  C
  H129     1.0000 0.48720  0.02130  0.65190  Biso   1.000  H
  H130     1.0000 0.40400  0.01000  0.62690  Biso   1.000  H
  C66      1.0000 0.37800  0.23110  0.60210  Biso   1.000  C
  H131     1.0000 0.36610  0.31180  0.61190  Biso   1.000  H
  H132     1.0000 0.33000  0.18660  0.60240  Biso   1.000  H
  C67      1.0000 0.72830  0.60980  0.59540  Biso   1.000  C
  H133     1.0000 0.73980  0.60300  0.55720  Biso   1.000  H
  H134     1.0000 0.77080  0.57460  0.61530  Biso   1.000  H
  C68      1.0000 0.70910  0.74190  0.67000  Biso   1.000  C
  H135     1.0000 0.70680  0.82320  0.68190  Biso   1.000  H
  H136     1.0000 0.75210  0.70410  0.68840  Biso   1.000  H
  C69      1.0000 0.65500  0.78820  0.58210  Biso   1.000  C
  H137     1.0000 0.66390  0.78450  0.54350  Biso   1.000  H
  H138     1.0000 0.65000  0.87040  0.59200  Biso   1.000  H
  C70      1.0000 0.56890  0.73520  0.65370  Biso   1.000  C
  H139     1.0000 0.52070  0.69600  0.66290  Biso   1.000  H
  H140     1.0000 0.56430  0.81720  0.66400  Biso   1.000  H
  C71      1.0000 0.64250  0.55460  0.66830  Biso   1.000  C
  H141     1.0000 0.68570  0.51910  0.68740  Biso   1.000  H
  H142     1.0000 0.59580  0.51210  0.67810  Biso   1.000  H
  C72      1.0000 0.58910  0.60290  0.57940  Biso   1.000  C
  H143     1.0000 0.54130  0.56190  0.58800  Biso   1.000  H
  H144     1.0000 0.59710  0.59760  0.54080  Biso   1.000  H
  N41      1.0000 0.54260  0.24840  0.58620  Biso   1.000  N
  N42      1.0000 0.48550  0.05020  0.57190  Biso   1.000  N
  N43      1.0000 0.43330  0.18010  0.64370  Biso   1.000  N
  N44      1.0000 0.41130  0.22940  0.54700  Biso   1.000  N
  N45      1.0000 0.65590  0.54370  0.60830  Biso   1.000  N
  N46      1.0000 0.72280  0.73700  0.61067  Biso   1.000  N
  N47      1.0000 0.58200  0.72760  0.59480  Biso   1.000  N
  N48      1.0000 0.63480  0.67980  0.68506  Biso   1.000  N
  Ag13     1.0000 0.83522  0.84644  0.57878  Biso   1.000  Ag
  C73      1.0000 0.01590  0.79660  0.54680  Biso   1.000  C
  H145     1.0000 0.99390  0.79480  0.51070  Biso   1.000  H
  H146     1.0000 0.02680  0.87790  0.55580  Biso   1.000  H
  C74      1.0000 0.99240  0.75130  0.64110  Biso   1.000  C
  H147     1.0000 0.00320  0.83220  0.65120  Biso   1.000  H
  H148     1.0000 0.95540  0.71960  0.66680  Biso   1.000  H
  C75      1.0000 0.94300  0.62190  0.57120  Biso   1.000  C
  H149     1.0000 0.90610  0.58850  0.59640  Biso   1.000  H
  H150     1.0000 0.92020  0.61870  0.53540  Biso   1.000  H
  C76      1.0000 0.07010  0.60430  0.53320  Biso   1.000  C
  H151     1.0000 0.11770  0.55860  0.53320  Biso   1.000  H
  H152     1.0000 0.04840  0.60130  0.49720  Biso   1.000  H
  C77      1.0000 0.04870  0.55610  0.62640  Biso   1.000  C
  H153     1.0000 0.01280  0.52130  0.65190  Biso   1.000  H
  H154     1.0000 0.09600  0.51000  0.62690  Biso   1.000  H
  C78      1.0000 0.12200  0.73110  0.60210  Biso   1.000  C
  H155     1.0000 0.13390  0.81180  0.61190  Biso   1.000  H
  H156     1.0000 0.17000  0.68660  0.60240  Biso   1.000  H
  C79      1.0000 0.77170  0.10980  0.59540  Biso   1.000  C
  H157     1.0000 0.76020  0.10300  0.55720  Biso   1.000  H
  H158     1.0000 0.72920  0.07460  0.61530  Biso   1.000  H
  C80      1.0000 0.79090  0.24190  0.67000  Biso   1.000  C
  H159     1.0000 0.79320  0.32320  0.68190  Biso   1.000  H
  H160     1.0000 0.74790  0.20410  0.68840  Biso   1.000  H
  C81      1.0000 0.84500  0.28820  0.58210  Biso   1.000  C
  H161     1.0000 0.83610  0.28450  0.54350  Biso   1.000  H
  H162     1.0000 0.85000  0.37040  0.59200  Biso   1.000  H
  C82      1.0000 0.93110  0.23520  0.65370  Biso   1.000  C
  H163     1.0000 0.97930  0.19600  0.66290  Biso   1.000  H
  H164     1.0000 0.93570  0.31720  0.66400  Biso   1.000  H
  C83      1.0000 0.85750  0.05460  0.66830  Biso   1.000  C
  H165     1.0000 0.81430  0.01910  0.68740  Biso   1.000  H
  H166     1.0000 0.90420  0.01210  0.67810  Biso   1.000  H
  C84      1.0000 0.91090  0.10290  0.57940  Biso   1.000  C
  H167     1.0000 0.95870  0.06190  0.58800  Biso   1.000  H
  H168     1.0000 0.90290  0.09760  0.54080  Biso   1.000  H
  N49      1.0000 0.95740  0.74840  0.58620  Biso   1.000  N
  N50      1.0000 0.01450  0.55020  0.57190  Biso   1.000  N
  N51      1.0000 0.06670  0.68010  0.64370  Biso   1.000  N
  N52      1.0000 0.08870  0.72940  0.54700  Biso   1.000  N
  N53      1.0000 0.84410  0.04370  0.60830  Biso   1.000  N
  N54      1.0000 0.77720  0.23700  0.61067  Biso   1.000  N
  N55      1.0000 0.91800  0.22760  0.59480  Biso   1.000  N
  N56      1.0000 0.86520  0.17980  0.68506  Biso   1.000  N
  Ag14     1.0000 0.60868  0.69216  0.77257  Biso   1.000  Ag
  Ag15     1.0000 0.16478  0.34644  0.92122  Biso   1.000  Ag
  C85      1.0000 0.98410  0.29660  0.95320  Biso   1.000  C
  H169     1.0000 0.00610  0.29480  0.98930  Biso   1.000  H
  H170     1.0000 0.97320  0.37790  0.94420  Biso   1.000  H
  C86      1.0000 0.00760  0.25130  0.85890  Biso   1.000  C
  H171     1.0000 0.99680  0.33220  0.84880  Biso   1.000  H
  H172     1.0000 0.04460  0.21960  0.83320  Biso   1.000  H
  C87      1.0000 0.05700  0.12190  0.92880  Biso   1.000  C
  H173     1.0000 0.09390  0.08850  0.90360  Biso   1.000  H
  H174     1.0000 0.07980  0.11870  0.96460  Biso   1.000  H
  C88      1.0000 0.92990  0.10430  0.96680  Biso   1.000  C
  H175     1.0000 0.88230  0.05860  0.96680  Biso   1.000  H
  H176     1.0000 0.95160  0.10130  0.00280  Biso   1.000  H
  C89      1.0000 0.95130  0.05610  0.87360  Biso   1.000  C
  H177     1.0000 0.98720  0.02130  0.84810  Biso   1.000  H
  H178     1.0000 0.90400  0.01000  0.87310  Biso   1.000  H
  C90      1.0000 0.87800  0.23110  0.89790  Biso   1.000  C
  H179     1.0000 0.86610  0.31180  0.88810  Biso   1.000  H
  H180     1.0000 0.83000  0.18660  0.89760  Biso   1.000  H
  C91      1.0000 0.22830  0.60980  0.90460  Biso   1.000  C
  H181     1.0000 0.23980  0.60300  0.94280  Biso   1.000  H
  H182     1.0000 0.27080  0.57460  0.88470  Biso   1.000  H
  C92      1.0000 0.20910  0.74190  0.83000  Biso   1.000  C
  H183     1.0000 0.20680  0.82320  0.81810  Biso   1.000  H
  H184     1.0000 0.25210  0.70410  0.81160  Biso   1.000  H
  C93      1.0000 0.15500  0.78820  0.91790  Biso   1.000  C
  H185     1.0000 0.16390  0.78450  0.95650  Biso   1.000  H
  H186     1.0000 0.15000  0.87040  0.90800  Biso   1.000  H
  C94      1.0000 0.06890  0.73520  0.84630  Biso   1.000  C
  H187     1.0000 0.02070  0.69600  0.83710  Biso   1.000  H
  H188     1.0000 0.06430  0.81720  0.83600  Biso   1.000  H
  C95      1.0000 0.14250  0.55460  0.83170  Biso   1.000  C
  H189     1.0000 0.18570  0.51910  0.81260  Biso   1.000  H
  H190     1.0000 0.09580  0.51210  0.82190  Biso   1.000  H
  C96      1.0000 0.08910  0.60290  0.92060  Biso   1.000  C
  H191     1.0000 0.04130  0.56190  0.91200  Biso   1.000  H
  H192     1.0000 0.09710  0.59760  0.95920  Biso   1.000  H
  N57      1.0000 0.04260  0.24840  0.91380  Biso   1.000  N
  N58      1.0000 0.98550  0.05020  0.92810  Biso   1.000  N
  N59      1.0000 0.93330  0.18010  0.85630  Biso   1.000  N
  N60      1.0000 0.91130  0.22940  0.95300  Biso   1.000  N
  N61      1.0000 0.15590  0.54370  0.89170  Biso   1.000  N
  N62      1.0000 0.22280  0.73700  0.88933  Biso   1.000  N
  N63      1.0000 0.08200  0.72760  0.90520  Biso   1.000  N
  N64      1.0000 0.13480  0.67980  0.81494  Biso   1.000  N
  Ag16     1.0000 0.39132  0.19216  0.72743  Biso   1.000  Ag
