data_image0
_cell_length_a       18.861
_cell_length_b       22.039
_cell_length_c       29.586
_cell_angle_alpha    90.024
_cell_angle_beta     90.018
_cell_angle_gamma    90.002

_symmetry_space_group_name_H-M    "P 1"
_symmetry_int_tables_number       1

loop_
  _symmetry_equiv_pos_as_xyz
  'x, y, z'

loop_
  _atom_site_label
  _atom_site_occupancy
  _atom_site_fract_x
  _atom_site_fract_y
  _atom_site_fract_z
  _atom_site_thermal_displace_type
  _atom_site_B_iso_or_equiv
  _atom_site_type_symbol
  Cu1      1.0000 0.26968  0.20220  0.53914  Biso   1.000  Cu
  Cu2      1.0000 0.23038  0.70187  0.53913  Biso   1.000  Cu
  Cu3      1.0000 0.26964  0.70205  0.96079  Biso   1.000  Cu
  Cu4      1.0000 0.23041  0.20210  0.96070  Biso   1.000  Cu
  Cu5      1.0000 0.74999  0.67325  0.74993  Biso   1.000  Cu
  Cu6      1.0000 0.74989  0.17345  0.74987  Biso   1.000  Cu
  N1       1.0000 0.21760  0.79260  0.53910  Biso   1.000  N
  N2       1.0000 0.25560  0.11290  0.54040  Biso   1.000  N
  N3       1.0000 0.24330  0.61190  0.54150  Biso   1.000  N
  N4       1.0000 0.28280  0.29180  0.54110  Biso   1.000  N
  N5       1.0000 0.75050  0.58360  0.75100  Biso   1.000  N
  N6       1.0000 0.75090  0.26310  0.75020  Biso   1.000  N
  N7       1.0000 0.74790  0.76490  0.74990  Biso   1.000  N
  N8       1.0000 0.74980  0.08180  0.75010  Biso   1.000  N
  N9       1.0000 0.21750  0.29300  0.96010  Biso   1.000  N
  N10      1.0000 0.25470  0.61140  0.95890  Biso   1.000  N
  N11      1.0000 0.24780  0.11020  0.95920  Biso   1.000  N
  N12      1.0000 0.28460  0.79410  0.96070  Biso   1.000  N
  N13      1.0000 0.66610  0.67240  0.78950  Biso   1.000  N
  N14      1.0000 0.35930  0.69070  0.92630  Biso   1.000  N
  N15      1.0000 0.83410  0.67080  0.70930  Biso   1.000  N
  N16      1.0000 0.14270  0.68910  0.57390  Biso   1.000  N
  N17      1.0000 0.83310  0.17200  0.79150  Biso   1.000  N
  N18      1.0000 0.14050  0.19040  0.92500  Biso   1.000  N
  N19      1.0000 0.66490  0.17220  0.70900  Biso   1.000  N
  N20      1.0000 0.35860  0.19070  0.57400  Biso   1.000  N
  C1       1.0000 0.74730  0.86030  0.79000  Biso   1.000  C
  H1       1.0000 0.74790  0.88120  0.81730  Biso   1.000  H
  C2       1.0000 0.61030  0.15170  0.63810  Biso   1.000  C
  H2       1.0000 0.61460  0.14030  0.60800  Biso   1.000  H
  C3       1.0000 0.74700  0.29340  0.71310  Biso   1.000  C
  H3       1.0000 0.74350  0.27130  0.68640  Biso   1.000  H
  C4       1.0000 0.48030  0.17840  0.62560  Biso   1.000  C
  C5       1.0000 0.83290  0.64810  0.66710  Biso   1.000  C
  H4       1.0000 0.79060  0.63190  0.65620  Biso   1.000  H
  C6       1.0000 0.70020  0.05130  0.77070  Biso   1.000  C
  H5       1.0000 0.66630  0.07300  0.78680  Biso   1.000  H
  C7       1.0000 0.35460  0.17120  0.61410  Biso   1.000  C
  H6       1.0000 0.31020  0.16150  0.62570  Biso   1.000  H
  C8       1.0000 0.95330  0.17620  0.84650  Biso   1.000  C
  C9       1.0000 0.74950  0.35860  0.79160  Biso   1.000  C
  H7       1.0000 0.74770  0.37850  0.81930  Biso   1.000  H
  C10      1.0000 0.23250  0.98560  0.54080  Biso   1.000  C
  C11      1.0000 0.29570  0.88680  0.92190  Biso   1.000  C
  H8       1.0000 0.30840  0.90750  0.89570  Biso   1.000  H
  C12      1.0000 0.79880  0.55300  0.77200  Biso   1.000  C
  H9       1.0000 0.83120  0.57400  0.78980  Biso   1.000  H
  C13      1.0000 0.01700  0.69650  0.58020  Biso   1.000  C
  H10      1.0000 0.97420  0.70470  0.56590  Biso   1.000  H
  C14      1.0000 0.48450  0.19950  0.57940  Biso   1.000  C
  H11      1.0000 0.52740  0.21040  0.56620  Biso   1.000  H
  C15      1.0000 0.54260  0.69980  0.80350  Biso   1.000  C
  H12      1.0000 0.50150  0.71890  0.79360  Biso   1.000  H
  C16      1.0000 0.69740  0.49080  0.72940  Biso   1.000  C
  H13      1.0000 0.65870  0.47120  0.71650  Biso   1.000  H
  C17      1.0000 0.20060  0.32270  0.92470  Biso   1.000  C
  H14      1.0000 0.18340  0.30120  0.89990  Biso   1.000  H
  C18      1.0000 0.80390  0.98830  0.72730  Biso   1.000  C
  H15      1.0000 0.83760  0.96840  0.70980  Biso   1.000  H
  C19      1.0000 0.23520  0.82520  0.50250  Biso   1.000  C
  H16      1.0000 0.24540  0.80430  0.47600  Biso   1.000  H
  C20      1.0000 0.22730  0.41940  0.95950  Biso   1.000  C
  C21      1.0000 0.70040  0.55570  0.72870  Biso   1.000  C
  H17      1.0000 0.66700  0.57790  0.71260  Biso   1.000  H
  C22      1.0000 0.80200  0.04990  0.73220  Biso   1.000  C
  H18      1.0000 0.84120  0.07150  0.72190  Biso   1.000  H
  C23      1.0000 0.54270  0.19970  0.69780  Biso   1.000  C
  H19      1.0000 0.50200  0.21900  0.70810  Biso   1.000  H
  C24      1.0000 0.74890  0.39110  0.75070  Biso   1.000  C
  C25      1.0000 0.75030  0.79550  0.71170  Biso   1.000  C
  H20      1.0000 0.74980  0.77360  0.68490  Biso   1.000  H
  C26      1.0000 0.29760  0.58510  0.56070  Biso   1.000  C
  H21      1.0000 0.33210  0.61050  0.57300  Biso   1.000  H
  C27      1.0000 0.95670  0.69750  0.69560  Biso   1.000  C
  H22      1.0000 0.99890  0.71370  0.70650  Biso   1.000  H
  C28      1.0000 0.74770  0.35910  0.70940  Biso   1.000  C
  H23      1.0000 0.74720  0.37880  0.68160  Biso   1.000  H
  C29      1.0000 0.26660  0.32400  0.50160  Biso   1.000  C
  H24      1.0000 0.25800  0.30340  0.47480  Biso   1.000  H
  C30      1.0000 0.30030  0.57470  0.97860  Biso   1.000  C
  H25      1.0000 0.33930  0.59190  0.99310  Biso   1.000  H
  C31      1.0000 0.89060  0.64800  0.63960  Biso   1.000  C
  H26      1.0000 0.88760  0.62930  0.61140  Biso   1.000  H
  C32      1.0000 0.14430  0.17020  0.88270  Biso   1.000  C
  H27      1.0000 0.18820  0.16150  0.87000  Biso   1.000  H
  C33      1.0000 0.66600  0.64790  0.83100  Biso   1.000  C
  H28      1.0000 0.70720  0.62790  0.83990  Biso   1.000  H
  C34      1.0000 0.23800  0.38670  0.99990  Biso   1.000  C
  H29      1.0000 0.24550  0.40690  0.02710  Biso   1.000  H
  C35      1.0000 0.20210  0.82360  0.57500  Biso   1.000  C
  H30      1.0000 0.18830  0.80260  0.60080  Biso   1.000  H
  C36      1.0000 0.66820  0.14700  0.66800  Biso   1.000  C
  H31      1.0000 0.70890  0.12630  0.65920  Biso   1.000  H
  C37      1.0000 0.22650  0.91950  0.54050  Biso   1.000  C
  C38      1.0000 0.29220  0.01270  0.51870  Biso   1.000  C
  H32      1.0000 0.32400  0.98800  0.50320  Biso   1.000  H
  C39      1.0000 0.20660  0.38680  0.92120  Biso   1.000  C
  H33      1.0000 0.19700  0.40660  0.89410  Biso   1.000  H
  C40      1.0000 0.80460  0.48950  0.76920  Biso   1.000  C
  H34      1.0000 0.84380  0.46940  0.78090  Biso   1.000  H
  C41      1.0000 0.07890  0.19880  0.94420  Biso   1.000  C
  H35      1.0000 0.07710  0.20550  0.97530  Biso   1.000  H
  C42      1.0000 0.23720  0.32450  0.99830  Biso   1.000  C
  H36      1.0000 0.25040  0.30280  0.02390  Biso   1.000  H
  C43      1.0000 0.60370  0.69620  0.77670  Biso   1.000  C
  H37      1.0000 0.60070  0.71150  0.74750  Biso   1.000  H
  C44      1.0000 0.20810  0.01290  0.97860  Biso   1.000  C
  H38      1.0000 0.17430  0.98820  0.99220  Biso   1.000  H
  C45      1.0000 0.74490  0.79250  0.79060  Biso   1.000  C
  H39      1.0000 0.74160  0.77070  0.81740  Biso   1.000  H
  C46      1.0000 0.26360  0.88680  0.99870  Biso   1.000  C
  H40      1.0000 0.25510  0.90720  0.02570  Biso   1.000  H
  C47      1.0000 0.26570  0.98590  0.95740  Biso   1.000  C
  C48      1.0000 0.01640  0.19820  0.91990  Biso   1.000  C
  H41      1.0000 0.97400  0.21020  0.93320  Biso   1.000  H
  C49      1.0000 0.01860  0.67780  0.62550  Biso   1.000  C
  C50      1.0000 0.01820  0.17900  0.87470  Biso   1.000  C
  C51      1.0000 0.26630  0.82510  0.99720  Biso   1.000  C
  H42      1.0000 0.25460  0.80360  0.02320  Biso   1.000  H
  C52      1.0000 0.88960  0.15040  0.86030  Biso   1.000  C
  H43      1.0000 0.88580  0.13450  0.88930  Biso   1.000  H
  C53      1.0000 0.83360  0.14790  0.83260  Biso   1.000  C
  H44      1.0000 0.79290  0.12830  0.84280  Biso   1.000  H
  C54      1.0000 0.75280  0.29490  0.78920  Biso   1.000  C
  H45      1.0000 0.75650  0.27340  0.81610  Biso   1.000  H
  C55      1.0000 0.23600  0.48520  0.95740  Biso   1.000  C
  C56      1.0000 0.26270  0.48620  0.54150  Biso   1.000  C
  C57      1.0000 0.27380  0.91740  0.95970  Biso   1.000  C
  C58      1.0000 0.95580  0.19960  0.80220  Biso   1.000  C
  H46      1.0000 0.99690  0.21700  0.79070  Biso   1.000  H
  C59      1.0000 0.08170  0.70280  0.55680  Biso   1.000  C
  H47      1.0000 0.08050  0.71760  0.52740  Biso   1.000  H
  C60      1.0000 0.27450  0.42050  0.54070  Biso   1.000  C
  C61      1.0000 0.29830  0.82480  0.92390  Biso   1.000  C
  H48      1.0000 0.31030  0.80350  0.89790  Biso   1.000  H
  C62      1.0000 0.19880  0.07670  0.98060  Biso   1.000  C
  H49      1.0000 0.16090  0.09440  0.99580  Biso   1.000  H
  C63      1.0000 0.69470  0.98810  0.77000  Biso   1.000  C
  H50      1.0000 0.65560  0.96770  0.78160  Biso   1.000  H
  C64      1.0000 0.89660  0.69590  0.72280  Biso   1.000  C
  H51      1.0000 0.89930  0.71270  0.75160  Biso   1.000  H
  C65      1.0000 0.30340  0.07350  0.52000  Biso   1.000  C
  H52      1.0000 0.34430  0.08920  0.50680  Biso   1.000  H
  C66      1.0000 0.20860  0.51340  0.52020  Biso   1.000  C
  H53      1.0000 0.17540  0.49010  0.50470  Biso   1.000  H
  C67      1.0000 0.19980  0.08680  0.56320  Biso   1.000  C
  H54      1.0000 0.16770  0.11140  0.57850  Biso   1.000  H
  C68      1.0000 0.35450  0.67040  0.88440  Biso   1.000  C
  H55      1.0000 0.31000  0.66010  0.87320  Biso   1.000  H
  C69      1.0000 0.41610  0.16320  0.64250  Biso   1.000  C
  H56      1.0000 0.41180  0.14810  0.67170  Biso   1.000  H
  C70      1.0000 0.20530  0.88800  0.57690  Biso   1.000  C
  H57      1.0000 0.19270  0.90820  0.60330  Biso   1.000  H
  C71      1.0000 0.14380  0.66950  0.61660  Biso   1.000  C
  H58      1.0000 0.18710  0.65910  0.62950  Biso   1.000  H
  C72      1.0000 0.08320  0.66410  0.64220  Biso   1.000  C
  H59      1.0000 0.08680  0.65060  0.67190  Biso   1.000  H
  C73      1.0000 0.95280  0.67470  0.65230  Biso   1.000  C
  C74      1.0000 0.74850  0.89120  0.75180  Biso   1.000  C
  C75      1.0000 0.26340  0.38770  0.50280  Biso   1.000  C
  H60      1.0000 0.25330  0.40830  0.47610  Biso   1.000  H
  C76      1.0000 0.61060  0.64920  0.86210  Biso   1.000  C
  H61      1.0000 0.61550  0.63530  0.89160  Biso   1.000  H
  C77      1.0000 0.29370  0.51120  0.97920  Biso   1.000  C
  H62      1.0000 0.32720  0.48720  0.99380  Biso   1.000  H
  C78      1.0000 0.42080  0.20250  0.55570  Biso   1.000  C
  H63      1.0000 0.42210  0.21340  0.52540  Biso   1.000  H
  C79      1.0000 0.20220  0.57420  0.52110  Biso   1.000  C
  H64      1.0000 0.16410  0.59070  0.50530  Biso   1.000  H
  C80      1.0000 0.48410  0.69820  0.91880  Biso   1.000  C
  H65      1.0000 0.52700  0.71030  0.93140  Biso   1.000  H
  C81      1.0000 0.75140  0.95830  0.75070  Biso   1.000  C
  C82      1.0000 0.19070  0.02380  0.56360  Biso   1.000  C
  H66      1.0000 0.15370  0.00770  0.58060  Biso   1.000  H
  C83      1.0000 0.30940  0.52350  0.56460  Biso   1.000  C
  H67      1.0000 0.34660  0.50800  0.58170  Biso   1.000  H
  C84      1.0000 0.30000  0.32430  0.57740  Biso   1.000  C
  H68      1.0000 0.31570  0.30420  0.60320  Biso   1.000  H
  C85      1.0000 0.19100  0.52320  0.93680  Biso   1.000  C
  H69      1.0000 0.15160  0.50690  0.92230  Biso   1.000  H
  C86      1.0000 0.54650  0.17390  0.65500  Biso   1.000  C
  C87      1.0000 0.75350  0.85980  0.70880  Biso   1.000  C
  H70      1.0000 0.75850  0.88020  0.68150  Biso   1.000  H
  C88      1.0000 0.30140  0.08750  0.93700  Biso   1.000  C
  H71      1.0000 0.33300  0.11330  0.92250  Biso   1.000  H
  C89      1.0000 0.42210  0.70100  0.94530  Biso   1.000  C
  H72      1.0000 0.42500  0.70990  0.97600  Biso   1.000  H
  C90      1.0000 0.20030  0.58690  0.93580  Biso   1.000  C
  H73      1.0000 0.16930  0.61130  0.91950  Biso   1.000  H
  C91      1.0000 0.29540  0.38620  0.57830  Biso   1.000  C
  H74      1.0000 0.30670  0.40640  0.60500  Biso   1.000  H
  C92      1.0000 0.08180  0.16190  0.85730  Biso   1.000  C
  H75      1.0000 0.08410  0.14470  0.82860  Biso   1.000  H
  C93      1.0000 0.23920  0.88630  0.50150  Biso   1.000  C
  H76      1.0000 0.25030  0.90620  0.47460  Biso   1.000  H
  C94      1.0000 0.60160  0.19510  0.72370  Biso   1.000  C
  H77      1.0000 0.59890  0.20840  0.75350  Biso   1.000  H
  C95      1.0000 0.31150  0.02570  0.93490  Biso   1.000  C
  H78      1.0000 0.34920  0.01010  0.91830  Biso   1.000  H
  C96      1.0000 0.89400  0.19550  0.77640  Biso   1.000  C
  H79      1.0000 0.89530  0.21000  0.74700  Biso   1.000  H
  C97      1.0000 0.75000  0.45750  0.74830  Biso   1.000  C
  C98      1.0000 0.54770  0.67280  0.84580  Biso   1.000  C
  C99      1.0000 0.48300  0.67840  0.87510  Biso   1.000  C
  C100     1.0000 0.41360  0.66360  0.85600  Biso   1.000  C
  H80      1.0000 0.40880  0.65020  0.82630  Biso   1.000  H
  Cu7      1.0000 0.73032  0.79780  0.46086  Biso   1.000  Cu
  Cu8      1.0000 0.76962  0.29813  0.46087  Biso   1.000  Cu
  Cu9      1.0000 0.73036  0.29795  0.03921  Biso   1.000  Cu
  Cu10     1.0000 0.76959  0.79790  0.03930  Biso   1.000  Cu
  Cu11     1.0000 0.25001  0.32675  0.25007  Biso   1.000  Cu
  Cu12     1.0000 0.25011  0.82655  0.25013  Biso   1.000  Cu
  N21      1.0000 0.78240  0.20740  0.46090  Biso   1.000  N
  N22      1.0000 0.74440  0.88710  0.45960  Biso   1.000  N
  N23      1.0000 0.75670  0.38810  0.45850  Biso   1.000  N
  N24      1.0000 0.71720  0.70820  0.45890  Biso   1.000  N
  N25      1.0000 0.24950  0.41640  0.24900  Biso   1.000  N
  N26      1.0000 0.24910  0.73690  0.24980  Biso   1.000  N
  N27      1.0000 0.25210  0.23510  0.25010  Biso   1.000  N
  N28      1.0000 0.25020  0.91820  0.24990  Biso   1.000  N
  N29      1.0000 0.78250  0.70700  0.03990  Biso   1.000  N
  N30      1.0000 0.74530  0.38860  0.04110  Biso   1.000  N
  N31      1.0000 0.75220  0.88980  0.04080  Biso   1.000  N
  N32      1.0000 0.71540  0.20590  0.03930  Biso   1.000  N
  N33      1.0000 0.33390  0.32760  0.21050  Biso   1.000  N
  N34      1.0000 0.64070  0.30930  0.07370  Biso   1.000  N
  N35      1.0000 0.16590  0.32920  0.29070  Biso   1.000  N
  N36      1.0000 0.85730  0.31090  0.42610  Biso   1.000  N
  N37      1.0000 0.16690  0.82800  0.20850  Biso   1.000  N
  N38      1.0000 0.85950  0.80960  0.07500  Biso   1.000  N
  N39      1.0000 0.33510  0.82780  0.29100  Biso   1.000  N
  N40      1.0000 0.64140  0.80930  0.42600  Biso   1.000  N
  C101     1.0000 0.25270  0.13970  0.21000  Biso   1.000  C
  H81      1.0000 0.25210  0.11880  0.18270  Biso   1.000  H
  C102     1.0000 0.38970  0.84830  0.36190  Biso   1.000  C
  H82      1.0000 0.38540  0.85970  0.39200  Biso   1.000  H
  C103     1.0000 0.25300  0.70660  0.28690  Biso   1.000  C
  H83      1.0000 0.25650  0.72870  0.31360  Biso   1.000  H
  C104     1.0000 0.51970  0.82160  0.37440  Biso   1.000  C
  C105     1.0000 0.16710  0.35190  0.33290  Biso   1.000  C
  H84      1.0000 0.20940  0.36810  0.34380  Biso   1.000  H
  C106     1.0000 0.29980  0.94870  0.22930  Biso   1.000  C
  H85      1.0000 0.33370  0.92700  0.21320  Biso   1.000  H
  C107     1.0000 0.64540  0.82880  0.38590  Biso   1.000  C
  H86      1.0000 0.68980  0.83850  0.37430  Biso   1.000  H
  C108     1.0000 0.04670  0.82380  0.15350  Biso   1.000  C
  C109     1.0000 0.25050  0.64140  0.20840  Biso   1.000  C
  H87      1.0000 0.25230  0.62150  0.18070  Biso   1.000  H
  C110     1.0000 0.76750  0.01440  0.45920  Biso   1.000  C
  C111     1.0000 0.70430  0.11320  0.07810  Biso   1.000  C
  H88      1.0000 0.69160  0.09250  0.10430  Biso   1.000  H
  C112     1.0000 0.20120  0.44700  0.22800  Biso   1.000  C
  H89      1.0000 0.16880  0.42600  0.21020  Biso   1.000  H
  C113     1.0000 0.98300  0.30350  0.41980  Biso   1.000  C
  H90      1.0000 0.02580  0.29530  0.43410  Biso   1.000  H
  C114     1.0000 0.51550  0.80050  0.42060  Biso   1.000  C
  H91      1.0000 0.47260  0.78960  0.43380  Biso   1.000  H
  C115     1.0000 0.45740  0.30020  0.19650  Biso   1.000  C
  H92      1.0000 0.49850  0.28110  0.20640  Biso   1.000  H
  C116     1.0000 0.30260  0.50920  0.27060  Biso   1.000  C
  H93      1.0000 0.34130  0.52880  0.28350  Biso   1.000  H
  C117     1.0000 0.79940  0.67730  0.07530  Biso   1.000  C
  H94      1.0000 0.81660  0.69880  0.10010  Biso   1.000  H
  C118     1.0000 0.19610  0.01170  0.27270  Biso   1.000  C
  H95      1.0000 0.16240  0.03160  0.29020  Biso   1.000  H
  C119     1.0000 0.76480  0.17480  0.49750  Biso   1.000  C
  H96      1.0000 0.75460  0.19570  0.52400  Biso   1.000  H
  C120     1.0000 0.77270  0.58060  0.04050  Biso   1.000  C
  C121     1.0000 0.29960  0.44430  0.27130  Biso   1.000  C
  H97      1.0000 0.33300  0.42210  0.28740  Biso   1.000  H
  C122     1.0000 0.19800  0.95010  0.26780  Biso   1.000  C
  H98      1.0000 0.15880  0.92850  0.27810  Biso   1.000  H
  C123     1.0000 0.45730  0.80030  0.30220  Biso   1.000  C
  H99      1.0000 0.49800  0.78100  0.29190  Biso   1.000  H
  C124     1.0000 0.25110  0.60890  0.24930  Biso   1.000  C
  C125     1.0000 0.24970  0.20450  0.28830  Biso   1.000  C
  H100     1.0000 0.25020  0.22640  0.31510  Biso   1.000  H
  C126     1.0000 0.70240  0.41490  0.43930  Biso   1.000  C
  H101     1.0000 0.66790  0.38950  0.42700  Biso   1.000  H
  C127     1.0000 0.04330  0.30250  0.30440  Biso   1.000  C
  H102     1.0000 0.00110  0.28630  0.29350  Biso   1.000  H
  C128     1.0000 0.25230  0.64090  0.29060  Biso   1.000  C
  H103     1.0000 0.25280  0.62120  0.31840  Biso   1.000  H
  C129     1.0000 0.73340  0.67600  0.49840  Biso   1.000  C
  H104     1.0000 0.74200  0.69660  0.52520  Biso   1.000  H
  C130     1.0000 0.69970  0.42530  0.02140  Biso   1.000  C
  H105     1.0000 0.66070  0.40810  0.00690  Biso   1.000  H
  C131     1.0000 0.10940  0.35200  0.36040  Biso   1.000  C
  H106     1.0000 0.11240  0.37070  0.38860  Biso   1.000  H
  C132     1.0000 0.85570  0.82980  0.11730  Biso   1.000  C
  H107     1.0000 0.81180  0.83850  0.13000  Biso   1.000  H
  C133     1.0000 0.33400  0.35210  0.16900  Biso   1.000  C
  H108     1.0000 0.29280  0.37210  0.16010  Biso   1.000  H
  C134     1.0000 0.76200  0.61330  0.00010  Biso   1.000  C
  H109     1.0000 0.75450  0.59310  0.97290  Biso   1.000  H
  C135     1.0000 0.79790  0.17640  0.42500  Biso   1.000  C
  H110     1.0000 0.81170  0.19740  0.39920  Biso   1.000  H
  C136     1.0000 0.33180  0.85300  0.33200  Biso   1.000  C
  H111     1.0000 0.29110  0.87370  0.34080  Biso   1.000  H
  C137     1.0000 0.77350  0.08050  0.45950  Biso   1.000  C
  C138     1.0000 0.70780  0.98730  0.48130  Biso   1.000  C
  H112     1.0000 0.67600  0.01200  0.49680  Biso   1.000  H
  C139     1.0000 0.79340  0.61320  0.07880  Biso   1.000  C
  H113     1.0000 0.80300  0.59340  0.10590  Biso   1.000  H
  C140     1.0000 0.19540  0.51050  0.23080  Biso   1.000  C
  H114     1.0000 0.15620  0.53060  0.21910  Biso   1.000  H
  C141     1.0000 0.92110  0.80120  0.05580  Biso   1.000  C
  H115     1.0000 0.92290  0.79450  0.02470  Biso   1.000  H
  C142     1.0000 0.76280  0.67550  0.00170  Biso   1.000  C
  H116     1.0000 0.74960  0.69720  0.97610  Biso   1.000  H
  C143     1.0000 0.39630  0.30380  0.22330  Biso   1.000  C
  H117     1.0000 0.39930  0.28850  0.25250  Biso   1.000  H
  C144     1.0000 0.79190  0.98710  0.02140  Biso   1.000  C
  H118     1.0000 0.82570  0.01180  0.00780  Biso   1.000  H
  C145     1.0000 0.25510  0.20750  0.20940  Biso   1.000  C
  H119     1.0000 0.25840  0.22930  0.18260  Biso   1.000  H
  C146     1.0000 0.73640  0.11320  0.00130  Biso   1.000  C
  H120     1.0000 0.74490  0.09280  0.97430  Biso   1.000  H
  C147     1.0000 0.73430  0.01410  0.04260  Biso   1.000  C
  C148     1.0000 0.98360  0.80180  0.08010  Biso   1.000  C
  H121     1.0000 0.02600  0.78980  0.06680  Biso   1.000  H
  C149     1.0000 0.98140  0.32220  0.37450  Biso   1.000  C
  C150     1.0000 0.98180  0.82100  0.12530  Biso   1.000  C
  C151     1.0000 0.73370  0.17490  0.00280  Biso   1.000  C
  H122     1.0000 0.74540  0.19640  0.97680  Biso   1.000  H
  C152     1.0000 0.11040  0.84960  0.13970  Biso   1.000  C
  H123     1.0000 0.11420  0.86550  0.11070  Biso   1.000  H
  C153     1.0000 0.16640  0.85210  0.16740  Biso   1.000  C
  H124     1.0000 0.20710  0.87170  0.15720  Biso   1.000  H
  C154     1.0000 0.24720  0.70510  0.21080  Biso   1.000  C
  H125     1.0000 0.24350  0.72660  0.18390  Biso   1.000  H
  C155     1.0000 0.76400  0.51480  0.04260  Biso   1.000  C
  C156     1.0000 0.73730  0.51380  0.45850  Biso   1.000  C
  C157     1.0000 0.72620  0.08260  0.04030  Biso   1.000  C
  C158     1.0000 0.04420  0.80040  0.19780  Biso   1.000  C
  H126     1.0000 0.00310  0.78300  0.20930  Biso   1.000  H
  C159     1.0000 0.91830  0.29720  0.44320  Biso   1.000  C
  H127     1.0000 0.91950  0.28240  0.47260  Biso   1.000  H
  C160     1.0000 0.72550  0.57950  0.45930  Biso   1.000  C
  C161     1.0000 0.70170  0.17520  0.07610  Biso   1.000  C
  H128     1.0000 0.68970  0.19650  0.10210  Biso   1.000  H
  C162     1.0000 0.80120  0.92330  0.01940  Biso   1.000  C
  H129     1.0000 0.83910  0.90560  0.00420  Biso   1.000  H
  C163     1.0000 0.30530  0.01190  0.23000  Biso   1.000  C
  H130     1.0000 0.34440  0.03230  0.21840  Biso   1.000  H
  C164     1.0000 0.10340  0.30410  0.27720  Biso   1.000  C
  H131     1.0000 0.10070  0.28730  0.24840  Biso   1.000  H
  C165     1.0000 0.69660  0.92650  0.48000  Biso   1.000  C
  H132     1.0000 0.65570  0.91080  0.49320  Biso   1.000  H
  C166     1.0000 0.79140  0.48660  0.47980  Biso   1.000  C
  H133     1.0000 0.82460  0.50990  0.49530  Biso   1.000  H
  C167     1.0000 0.80020  0.91320  0.43680  Biso   1.000  C
  H134     1.0000 0.83230  0.88860  0.42150  Biso   1.000  H
  C168     1.0000 0.64550  0.32960  0.11560  Biso   1.000  C
  H135     1.0000 0.69000  0.33990  0.12680  Biso   1.000  H
  C169     1.0000 0.58390  0.83680  0.35750  Biso   1.000  C
  H136     1.0000 0.58820  0.85190  0.32830  Biso   1.000  H
  C170     1.0000 0.79470  0.11200  0.42310  Biso   1.000  C
  H137     1.0000 0.80730  0.09180  0.39670  Biso   1.000  H
  C171     1.0000 0.85620  0.33050  0.38340  Biso   1.000  C
  H138     1.0000 0.81290  0.34090  0.37050  Biso   1.000  H
  C172     1.0000 0.91680  0.33590  0.35780  Biso   1.000  C
  H139     1.0000 0.91320  0.34940  0.32810  Biso   1.000  H
  C173     1.0000 0.04720  0.32530  0.34770  Biso   1.000  C
  C174     1.0000 0.25150  0.10880  0.24820  Biso   1.000  C
  C175     1.0000 0.73660  0.61230  0.49720  Biso   1.000  C
  H140     1.0000 0.74670  0.59170  0.52390  Biso   1.000  H
  C176     1.0000 0.38940  0.35080  0.13790  Biso   1.000  C
  H141     1.0000 0.38450  0.36470  0.10840  Biso   1.000  H
  C177     1.0000 0.70630  0.48880  0.02080  Biso   1.000  C
  H142     1.0000 0.67280  0.51280  0.00620  Biso   1.000  H
  C178     1.0000 0.57920  0.79750  0.44430  Biso   1.000  C
  H143     1.0000 0.57790  0.78660  0.47460  Biso   1.000  H
  C179     1.0000 0.79780  0.42580  0.47890  Biso   1.000  C
  H144     1.0000 0.83590  0.40930  0.49470  Biso   1.000  H
  C180     1.0000 0.51590  0.30180  0.08120  Biso   1.000  C
  H145     1.0000 0.47300  0.28970  0.06860  Biso   1.000  H
  C181     1.0000 0.24860  0.04170  0.24930  Biso   1.000  C
  C182     1.0000 0.80930  0.97620  0.43640  Biso   1.000  C
  H146     1.0000 0.84630  0.99230  0.41940  Biso   1.000  H
  C183     1.0000 0.69060  0.47650  0.43540  Biso   1.000  C
  H147     1.0000 0.65340  0.49200  0.41830  Biso   1.000  H
  C184     1.0000 0.70000  0.67570  0.42260  Biso   1.000  C
  H148     1.0000 0.68430  0.69580  0.39680  Biso   1.000  H
  C185     1.0000 0.80900  0.47680  0.06320  Biso   1.000  C
  H149     1.0000 0.84840  0.49310  0.07770  Biso   1.000  H
  C186     1.0000 0.45350  0.82610  0.34500  Biso   1.000  C
  C187     1.0000 0.24650  0.14020  0.29120  Biso   1.000  C
  H150     1.0000 0.24150  0.11980  0.31850  Biso   1.000  H
  C188     1.0000 0.69860  0.91250  0.06300  Biso   1.000  C
  H151     1.0000 0.66700  0.88670  0.07750  Biso   1.000  H
  C189     1.0000 0.57790  0.29900  0.05470  Biso   1.000  C
  H152     1.0000 0.57500  0.29010  0.02400  Biso   1.000  H
  C190     1.0000 0.79970  0.41310  0.06420  Biso   1.000  C
  H153     1.0000 0.83070  0.38870  0.08050  Biso   1.000  H
  C191     1.0000 0.70460  0.61380  0.42170  Biso   1.000  C
  H154     1.0000 0.69330  0.59360  0.39500  Biso   1.000  H
  C192     1.0000 0.91820  0.83810  0.14270  Biso   1.000  C
  H155     1.0000 0.91590  0.85530  0.17140  Biso   1.000  H
  C193     1.0000 0.76080  0.11370  0.49850  Biso   1.000  C
  H156     1.0000 0.74970  0.09380  0.52540  Biso   1.000  H
  C194     1.0000 0.39840  0.80490  0.27630  Biso   1.000  C
  H157     1.0000 0.40110  0.79160  0.24650  Biso   1.000  H
  C195     1.0000 0.68850  0.97430  0.06510  Biso   1.000  C
  H158     1.0000 0.65080  0.98990  0.08170  Biso   1.000  H
  C196     1.0000 0.10600  0.80450  0.22360  Biso   1.000  C
  H159     1.0000 0.10470  0.79000  0.25300  Biso   1.000  H
  C197     1.0000 0.25000  0.54250  0.25170  Biso   1.000  C
  C198     1.0000 0.45230  0.32720  0.15420  Biso   1.000  C
  C199     1.0000 0.51700  0.32160  0.12490  Biso   1.000  C
  C200     1.0000 0.58640  0.33640  0.14400  Biso   1.000  C
  H160     1.0000 0.59120  0.34980  0.17370  Biso   1.000  H
