data_image0
_cell_length_a       10.732
_cell_length_b       20.421
_cell_length_c       22.125
_cell_angle_alpha    90
_cell_angle_beta     90
_cell_angle_gamma    90

_symmetry_space_group_name_H-M    "P 1"
_symmetry_int_tables_number       1

loop_
  _symmetry_equiv_pos_as_xyz
  'x, y, z'

loop_
  _atom_site_label
  _atom_site_occupancy
  _atom_site_fract_x
  _atom_site_fract_y
  _atom_site_fract_z
  _atom_site_thermal_displace_type
  _atom_site_B_iso_or_equiv
  _atom_site_type_symbol
  Cd1      1.0000 0.56965  0.13883  0.62489  Biso   1.000  Cd
  N1       1.0000 0.64110  0.06650  0.44039  Biso   1.000  N
  N2       1.0000 0.60110  0.08230  0.53662  Biso   1.000  N
  N3       1.0000 0.86250  0.01980  0.25593  Biso   1.000  N
  N4       1.0000 0.93280  0.94910  0.18924  Biso   1.000  N
  N5       1.0000 0.56960  0.20040  0.26166  Biso   1.000  N
  N6       1.0000 0.53680  0.28330  0.19957  Biso   1.000  N
  C1       1.0000 0.66510  0.08100  0.37820  Biso   1.000  C
  C2       1.0000 0.75050  0.04470  0.34730  Biso   1.000  C
  H1       1.0000 0.79140  0.01010  0.36610  Biso   1.000  H
  C3       1.0000 0.77550  0.05980  0.28800  Biso   1.000  C
  C4       1.0000 0.71520  0.11020  0.25870  Biso   1.000  C
  H2       1.0000 0.73170  0.11920  0.21830  Biso   1.000  H
  C5       1.0000 0.62920  0.14720  0.29090  Biso   1.000  C
  C6       1.0000 0.60210  0.13270  0.34980  Biso   1.000  C
  H3       1.0000 0.54260  0.15680  0.37080  Biso   1.000  H
  C7       1.0000 0.60030  0.10850  0.48330  Biso   1.000  C
  H4       1.0000 0.57470  0.15120  0.47550  Biso   1.000  H
  C8       1.0000 0.64160  0.01900  0.52840  Biso   1.000  C
  H5       1.0000 0.65000  0.98800  0.55890  Biso   1.000  H
  C9       1.0000 0.66680  0.00900  0.47020  Biso   1.000  C
  H6       1.0000 0.69630  0.97040  0.45300  Biso   1.000  H
  C10      1.0000 0.83890  0.98620  0.20420  Biso   1.000  C
  H7       1.0000 0.76530  0.98930  0.18220  Biso   1.000  H
  C11      1.0000 0.01990  0.95820  0.23350  Biso   1.000  C
  H8       1.0000 0.09730  0.93780  0.23500  Biso   1.000  H
  C12      1.0000 0.97660  0.00100  0.27440  Biso   1.000  C
  H9       1.0000 0.01780  0.01510  0.30900  Biso   1.000  H
  C13      1.0000 0.61370  0.23720  0.21530  Biso   1.000  C
  H10      1.0000 0.69040  0.23020  0.19680  Biso   1.000  H
  C14      1.0000 0.43590  0.27690  0.23820  Biso   1.000  C
  H11      1.0000 0.36530  0.30330  0.23770  Biso   1.000  H
  C15      1.0000 0.45520  0.22680  0.27620  Biso   1.000  C
  H12      1.0000 0.40170  0.21270  0.30660  Biso   1.000  H
  Cd2      1.0000 0.93035  0.86117  0.12489  Biso   1.000  Cd
  N7       1.0000 0.85890  0.93350  0.94039  Biso   1.000  N
  N8       1.0000 0.89890  0.91770  0.03662  Biso   1.000  N
  N9       1.0000 0.63750  0.98020  0.75593  Biso   1.000  N
  N10      1.0000 0.56720  0.05090  0.68924  Biso   1.000  N
  N11      1.0000 0.93040  0.79960  0.76166  Biso   1.000  N
  N12      1.0000 0.96320  0.71670  0.69957  Biso   1.000  N
  C16      1.0000 0.83490  0.91900  0.87820  Biso   1.000  C
  C17      1.0000 0.74950  0.95530  0.84730  Biso   1.000  C
  H13      1.0000 0.70860  0.98990  0.86610  Biso   1.000  H
  C18      1.0000 0.72450  0.94020  0.78800  Biso   1.000  C
  C19      1.0000 0.78480  0.88980  0.75870  Biso   1.000  C
  H14      1.0000 0.76830  0.88080  0.71830  Biso   1.000  H
  C20      1.0000 0.87080  0.85280  0.79090  Biso   1.000  C
  C21      1.0000 0.89790  0.86730  0.84980  Biso   1.000  C
  H15      1.0000 0.95740  0.84320  0.87080  Biso   1.000  H
  C22      1.0000 0.89970  0.89150  0.98330  Biso   1.000  C
  H16      1.0000 0.92530  0.84880  0.97550  Biso   1.000  H
  C23      1.0000 0.85840  0.98100  0.02840  Biso   1.000  C
  H17      1.0000 0.85000  0.01200  0.05890  Biso   1.000  H
  C24      1.0000 0.83320  0.99100  0.97020  Biso   1.000  C
  H18      1.0000 0.80370  0.02960  0.95300  Biso   1.000  H
  C25      1.0000 0.66110  0.01380  0.70420  Biso   1.000  C
  H19      1.0000 0.73470  0.01070  0.68220  Biso   1.000  H
  C26      1.0000 0.48010  0.04180  0.73350  Biso   1.000  C
  H20      1.0000 0.40270  0.06220  0.73500  Biso   1.000  H
  C27      1.0000 0.52340  0.99900  0.77440  Biso   1.000  C
  H21      1.0000 0.48220  0.98490  0.80900  Biso   1.000  H
  C28      1.0000 0.88630  0.76280  0.71530  Biso   1.000  C
  H22      1.0000 0.80960  0.76980  0.69680  Biso   1.000  H
  C29      1.0000 0.06410  0.72310  0.73820  Biso   1.000  C
  H23      1.0000 0.13470  0.69670  0.73770  Biso   1.000  H
  C30      1.0000 0.04480  0.77320  0.77620  Biso   1.000  C
  H24      1.0000 0.09830  0.78730  0.80660  Biso   1.000  H
  Cd3      1.0000 0.56965  0.36117  0.12489  Biso   1.000  Cd
  N13      1.0000 0.64110  0.43350  0.94039  Biso   1.000  N
  N14      1.0000 0.60110  0.41770  0.03662  Biso   1.000  N
  N15      1.0000 0.86250  0.48020  0.75593  Biso   1.000  N
  N16      1.0000 0.93280  0.55090  0.68924  Biso   1.000  N
  N17      1.0000 0.56960  0.29960  0.76166  Biso   1.000  N
  N18      1.0000 0.53680  0.21670  0.69957  Biso   1.000  N
  C31      1.0000 0.66510  0.41900  0.87820  Biso   1.000  C
  C32      1.0000 0.75050  0.45530  0.84730  Biso   1.000  C
  H25      1.0000 0.79140  0.48990  0.86610  Biso   1.000  H
  C33      1.0000 0.77550  0.44020  0.78800  Biso   1.000  C
  C34      1.0000 0.71520  0.38980  0.75870  Biso   1.000  C
  H26      1.0000 0.73170  0.38080  0.71830  Biso   1.000  H
  C35      1.0000 0.62920  0.35280  0.79090  Biso   1.000  C
  C36      1.0000 0.60210  0.36730  0.84980  Biso   1.000  C
  H27      1.0000 0.54260  0.34320  0.87080  Biso   1.000  H
  C37      1.0000 0.60030  0.39150  0.98330  Biso   1.000  C
  H28      1.0000 0.57470  0.34880  0.97550  Biso   1.000  H
  C38      1.0000 0.64160  0.48100  0.02840  Biso   1.000  C
  H29      1.0000 0.65000  0.51200  0.05890  Biso   1.000  H
  C39      1.0000 0.66680  0.49100  0.97020  Biso   1.000  C
  H30      1.0000 0.69630  0.52960  0.95300  Biso   1.000  H
  C40      1.0000 0.83890  0.51380  0.70420  Biso   1.000  C
  H31      1.0000 0.76530  0.51070  0.68220  Biso   1.000  H
  C41      1.0000 0.01990  0.54180  0.73350  Biso   1.000  C
  H32      1.0000 0.09730  0.56220  0.73500  Biso   1.000  H
  C42      1.0000 0.97660  0.49900  0.77440  Biso   1.000  C
  H33      1.0000 0.01780  0.48490  0.80900  Biso   1.000  H
  C43      1.0000 0.61370  0.26280  0.71530  Biso   1.000  C
  H34      1.0000 0.69040  0.26980  0.69680  Biso   1.000  H
  C44      1.0000 0.43590  0.22310  0.73820  Biso   1.000  C
  H35      1.0000 0.36530  0.19670  0.73770  Biso   1.000  H
  C45      1.0000 0.45520  0.27320  0.77620  Biso   1.000  C
  H36      1.0000 0.40170  0.28730  0.80660  Biso   1.000  H
  Cd4      1.0000 0.93035  0.63883  0.62489  Biso   1.000  Cd
  N19      1.0000 0.85890  0.56650  0.44039  Biso   1.000  N
  N20      1.0000 0.89890  0.58230  0.53662  Biso   1.000  N
  N21      1.0000 0.63750  0.51980  0.25593  Biso   1.000  N
  N22      1.0000 0.56720  0.44910  0.18924  Biso   1.000  N
  N23      1.0000 0.93040  0.70040  0.26166  Biso   1.000  N
  N24      1.0000 0.96320  0.78330  0.19957  Biso   1.000  N
  C46      1.0000 0.83490  0.58100  0.37820  Biso   1.000  C
  C47      1.0000 0.74950  0.54470  0.34730  Biso   1.000  C
  H37      1.0000 0.70860  0.51010  0.36610  Biso   1.000  H
  C48      1.0000 0.72450  0.55980  0.28800  Biso   1.000  C
  C49      1.0000 0.78480  0.61020  0.25870  Biso   1.000  C
  H38      1.0000 0.76830  0.61920  0.21830  Biso   1.000  H
  C50      1.0000 0.87080  0.64720  0.29090  Biso   1.000  C
  C51      1.0000 0.89790  0.63270  0.34980  Biso   1.000  C
  H39      1.0000 0.95740  0.65680  0.37080  Biso   1.000  H
  C52      1.0000 0.89970  0.60850  0.48330  Biso   1.000  C
  H40      1.0000 0.92530  0.65120  0.47550  Biso   1.000  H
  C53      1.0000 0.85840  0.51900  0.52840  Biso   1.000  C
  H41      1.0000 0.85000  0.48800  0.55890  Biso   1.000  H
  C54      1.0000 0.83320  0.50900  0.47020  Biso   1.000  C
  H42      1.0000 0.80370  0.47040  0.45300  Biso   1.000  H
  C55      1.0000 0.66110  0.48620  0.20420  Biso   1.000  C
  H43      1.0000 0.73470  0.48930  0.18220  Biso   1.000  H
  C56      1.0000 0.48010  0.45820  0.23350  Biso   1.000  C
  H44      1.0000 0.40270  0.43780  0.23500  Biso   1.000  H
  C57      1.0000 0.52340  0.50100  0.27440  Biso   1.000  C
  H45      1.0000 0.48220  0.51510  0.30900  Biso   1.000  H
  C58      1.0000 0.88630  0.73720  0.21530  Biso   1.000  C
  H46      1.0000 0.80960  0.73020  0.19680  Biso   1.000  H
  C59      1.0000 0.06410  0.77690  0.23820  Biso   1.000  C
  H47      1.0000 0.13470  0.80330  0.23770  Biso   1.000  H
  C60      1.0000 0.04480  0.72680  0.27620  Biso   1.000  C
  H48      1.0000 0.09830  0.71270  0.30660  Biso   1.000  H
  Cd5      1.0000 0.43035  0.63883  0.87511  Biso   1.000  Cd
  N25      1.0000 0.35890  0.56650  0.05961  Biso   1.000  N
  N26      1.0000 0.39890  0.58230  0.96338  Biso   1.000  N
  N27      1.0000 0.13750  0.51980  0.24407  Biso   1.000  N
  N28      1.0000 0.06720  0.44910  0.31076  Biso   1.000  N
  N29      1.0000 0.43040  0.70040  0.23834  Biso   1.000  N
  N30      1.0000 0.46320  0.78330  0.30043  Biso   1.000  N
  C61      1.0000 0.33490  0.58100  0.12180  Biso   1.000  C
  C62      1.0000 0.24950  0.54470  0.15270  Biso   1.000  C
  H49      1.0000 0.20860  0.51010  0.13390  Biso   1.000  H
  C63      1.0000 0.22450  0.55980  0.21200  Biso   1.000  C
  C64      1.0000 0.28480  0.61020  0.24130  Biso   1.000  C
  H50      1.0000 0.26830  0.61920  0.28170  Biso   1.000  H
  C65      1.0000 0.37080  0.64720  0.20910  Biso   1.000  C
  C66      1.0000 0.39790  0.63270  0.15020  Biso   1.000  C
  H51      1.0000 0.45740  0.65680  0.12920  Biso   1.000  H
  C67      1.0000 0.39970  0.60850  0.01670  Biso   1.000  C
  H52      1.0000 0.42530  0.65120  0.02450  Biso   1.000  H
  C68      1.0000 0.35840  0.51900  0.97160  Biso   1.000  C
  H53      1.0000 0.35000  0.48800  0.94110  Biso   1.000  H
  C69      1.0000 0.33320  0.50900  0.02980  Biso   1.000  C
  H54      1.0000 0.30370  0.47040  0.04700  Biso   1.000  H
  C70      1.0000 0.16110  0.48620  0.29580  Biso   1.000  C
  H55      1.0000 0.23470  0.48930  0.31780  Biso   1.000  H
  C71      1.0000 0.98010  0.45820  0.26650  Biso   1.000  C
  H56      1.0000 0.90270  0.43780  0.26500  Biso   1.000  H
  C72      1.0000 0.02340  0.50100  0.22560  Biso   1.000  C
  H57      1.0000 0.98220  0.51510  0.19100  Biso   1.000  H
  C73      1.0000 0.38630  0.73720  0.28470  Biso   1.000  C
  H58      1.0000 0.30960  0.73020  0.30320  Biso   1.000  H
  C74      1.0000 0.56410  0.77690  0.26180  Biso   1.000  C
  H59      1.0000 0.63470  0.80330  0.26230  Biso   1.000  H
  C75      1.0000 0.54480  0.72680  0.22380  Biso   1.000  C
  H60      1.0000 0.59830  0.71270  0.19340  Biso   1.000  H
  Cd6      1.0000 0.06965  0.36117  0.37511  Biso   1.000  Cd
  N31      1.0000 0.14110  0.43350  0.55961  Biso   1.000  N
  N32      1.0000 0.10110  0.41770  0.46338  Biso   1.000  N
  N33      1.0000 0.36250  0.48020  0.74407  Biso   1.000  N
  N34      1.0000 0.43280  0.55090  0.81076  Biso   1.000  N
  N35      1.0000 0.06960  0.29960  0.73834  Biso   1.000  N
  N36      1.0000 0.03680  0.21670  0.80043  Biso   1.000  N
  C76      1.0000 0.16510  0.41900  0.62180  Biso   1.000  C
  C77      1.0000 0.25050  0.45530  0.65270  Biso   1.000  C
  H61      1.0000 0.29140  0.48990  0.63390  Biso   1.000  H
  C78      1.0000 0.27550  0.44020  0.71200  Biso   1.000  C
  C79      1.0000 0.21520  0.38980  0.74130  Biso   1.000  C
  H62      1.0000 0.23170  0.38080  0.78170  Biso   1.000  H
  C80      1.0000 0.12920  0.35280  0.70910  Biso   1.000  C
  C81      1.0000 0.10210  0.36730  0.65020  Biso   1.000  C
  H63      1.0000 0.04260  0.34320  0.62920  Biso   1.000  H
  C82      1.0000 0.10030  0.39150  0.51670  Biso   1.000  C
  H64      1.0000 0.07470  0.34880  0.52450  Biso   1.000  H
  C83      1.0000 0.14160  0.48100  0.47160  Biso   1.000  C
  H65      1.0000 0.15000  0.51200  0.44110  Biso   1.000  H
  C84      1.0000 0.16680  0.49100  0.52980  Biso   1.000  C
  H66      1.0000 0.19630  0.52960  0.54700  Biso   1.000  H
  C85      1.0000 0.33890  0.51380  0.79580  Biso   1.000  C
  H67      1.0000 0.26530  0.51070  0.81780  Biso   1.000  H
  C86      1.0000 0.51990  0.54180  0.76650  Biso   1.000  C
  H68      1.0000 0.59730  0.56220  0.76500  Biso   1.000  H
  C87      1.0000 0.47660  0.49900  0.72560  Biso   1.000  C
  H69      1.0000 0.51780  0.48490  0.69100  Biso   1.000  H
  C88      1.0000 0.11370  0.26280  0.78470  Biso   1.000  C
  H70      1.0000 0.19040  0.26980  0.80320  Biso   1.000  H
  C89      1.0000 0.93590  0.22310  0.76180  Biso   1.000  C
  H71      1.0000 0.86530  0.19670  0.76230  Biso   1.000  H
  C90      1.0000 0.95520  0.27320  0.72380  Biso   1.000  C
  H72      1.0000 0.90170  0.28730  0.69340  Biso   1.000  H
  Cd7      1.0000 0.43035  0.86117  0.37511  Biso   1.000  Cd
  N37      1.0000 0.35890  0.93350  0.55961  Biso   1.000  N
  N38      1.0000 0.39890  0.91770  0.46338  Biso   1.000  N
  N39      1.0000 0.13750  0.98020  0.74407  Biso   1.000  N
  N40      1.0000 0.06720  0.05090  0.81076  Biso   1.000  N
  N41      1.0000 0.43040  0.79960  0.73834  Biso   1.000  N
  N42      1.0000 0.46320  0.71670  0.80043  Biso   1.000  N
  C91      1.0000 0.33490  0.91900  0.62180  Biso   1.000  C
  C92      1.0000 0.24950  0.95530  0.65270  Biso   1.000  C
  H73      1.0000 0.20860  0.98990  0.63390  Biso   1.000  H
  C93      1.0000 0.22450  0.94020  0.71200  Biso   1.000  C
  C94      1.0000 0.28480  0.88980  0.74130  Biso   1.000  C
  H74      1.0000 0.26830  0.88080  0.78170  Biso   1.000  H
  C95      1.0000 0.37080  0.85280  0.70910  Biso   1.000  C
  C96      1.0000 0.39790  0.86730  0.65020  Biso   1.000  C
  H75      1.0000 0.45740  0.84320  0.62920  Biso   1.000  H
  C97      1.0000 0.39970  0.89150  0.51670  Biso   1.000  C
  H76      1.0000 0.42530  0.84880  0.52450  Biso   1.000  H
  C98      1.0000 0.35840  0.98100  0.47160  Biso   1.000  C
  H77      1.0000 0.35000  0.01200  0.44110  Biso   1.000  H
  C99      1.0000 0.33320  0.99100  0.52980  Biso   1.000  C
  H78      1.0000 0.30370  0.02960  0.54700  Biso   1.000  H
  C100     1.0000 0.16110  0.01380  0.79580  Biso   1.000  C
  H79      1.0000 0.23470  0.01070  0.81780  Biso   1.000  H
  C101     1.0000 0.98010  0.04180  0.76650  Biso   1.000  C
  H80      1.0000 0.90270  0.06220  0.76500  Biso   1.000  H
  C102     1.0000 0.02340  0.99900  0.72560  Biso   1.000  C
  H81      1.0000 0.98220  0.98490  0.69100  Biso   1.000  H
  C103     1.0000 0.38630  0.76280  0.78470  Biso   1.000  C
  H82      1.0000 0.30960  0.76980  0.80320  Biso   1.000  H
  C104     1.0000 0.56410  0.72310  0.76180  Biso   1.000  C
  H83      1.0000 0.63470  0.69670  0.76230  Biso   1.000  H
  C105     1.0000 0.54480  0.77320  0.72380  Biso   1.000  C
  H84      1.0000 0.59830  0.78730  0.69340  Biso   1.000  H
  Cd8      1.0000 0.06965  0.13883  0.87511  Biso   1.000  Cd
  N43      1.0000 0.14110  0.06650  0.05961  Biso   1.000  N
  N44      1.0000 0.10110  0.08230  0.96338  Biso   1.000  N
  N45      1.0000 0.36250  0.01980  0.24407  Biso   1.000  N
  N46      1.0000 0.43280  0.94910  0.31076  Biso   1.000  N
  N47      1.0000 0.06960  0.20040  0.23834  Biso   1.000  N
  N48      1.0000 0.03680  0.28330  0.30043  Biso   1.000  N
  C106     1.0000 0.16510  0.08100  0.12180  Biso   1.000  C
  C107     1.0000 0.25050  0.04470  0.15270  Biso   1.000  C
  H85      1.0000 0.29140  0.01010  0.13390  Biso   1.000  H
  C108     1.0000 0.27550  0.05980  0.21200  Biso   1.000  C
  C109     1.0000 0.21520  0.11020  0.24130  Biso   1.000  C
  H86      1.0000 0.23170  0.11920  0.28170  Biso   1.000  H
  C110     1.0000 0.12920  0.14720  0.20910  Biso   1.000  C
  C111     1.0000 0.10210  0.13270  0.15020  Biso   1.000  C
  H87      1.0000 0.04260  0.15680  0.12920  Biso   1.000  H
  C112     1.0000 0.10030  0.10850  0.01670  Biso   1.000  C
  H88      1.0000 0.07470  0.15120  0.02450  Biso   1.000  H
  C113     1.0000 0.14160  0.01900  0.97160  Biso   1.000  C
  H89      1.0000 0.15000  0.98800  0.94110  Biso   1.000  H
  C114     1.0000 0.16680  0.00900  0.02980  Biso   1.000  C
  H90      1.0000 0.19630  0.97040  0.04700  Biso   1.000  H
  C115     1.0000 0.33890  0.98620  0.29580  Biso   1.000  C
  H91      1.0000 0.26530  0.98930  0.31780  Biso   1.000  H
  C116     1.0000 0.51990  0.95820  0.26650  Biso   1.000  C
  H92      1.0000 0.59730  0.93780  0.26500  Biso   1.000  H
  C117     1.0000 0.47660  0.00100  0.22560  Biso   1.000  C
  H93      1.0000 0.51780  0.01510  0.19100  Biso   1.000  H
  C118     1.0000 0.11370  0.23720  0.28470  Biso   1.000  C
  H94      1.0000 0.19040  0.23020  0.30320  Biso   1.000  H
  C119     1.0000 0.93590  0.27690  0.26180  Biso   1.000  C
  H95      1.0000 0.86530  0.30330  0.26230  Biso   1.000  H
  C120     1.0000 0.95520  0.22680  0.22380  Biso   1.000  C
  H96      1.0000 0.90170  0.21270  0.19340  Biso   1.000  H
