data_image0
_cell_length_a       13.6316
_cell_length_b       13.6316
_cell_length_c       7.968
_cell_angle_alpha    90
_cell_angle_beta     90
_cell_angle_gamma    90

_symmetry_space_group_name_H-M    "P 1"
_symmetry_int_tables_number       1

loop_
  _symmetry_equiv_pos_as_xyz
  'x, y, z'

loop_
  _atom_site_label
  _atom_site_occupancy
  _atom_site_fract_x
  _atom_site_fract_y
  _atom_site_fract_z
  _atom_site_thermal_displace_type
  _atom_site_B_iso_or_equiv
  _atom_site_type_symbol
  C1       1.0000 0.45750  0.30170  0.87690  Biso   1.000  C
  H1       1.0000 0.42710  0.33720  0.78840  Biso   1.000  H
  C2       1.0000 0.45580  0.20130  0.87240  Biso   1.000  C
  H2       1.0000 0.42440  0.16810  0.78240  Biso   1.000  H
  C3       1.0000 0.54250  0.69830  0.87690  Biso   1.000  C
  H3       1.0000 0.57290  0.66280  0.78840  Biso   1.000  H
  C4       1.0000 0.54420  0.79870  0.87240  Biso   1.000  C
  H4       1.0000 0.57560  0.83190  0.78240  Biso   1.000  H
  C5       1.0000 0.69830  0.45750  0.87690  Biso   1.000  C
  H5       1.0000 0.66280  0.42710  0.78840  Biso   1.000  H
  C6       1.0000 0.79870  0.45580  0.87240  Biso   1.000  C
  H6       1.0000 0.83190  0.42440  0.78240  Biso   1.000  H
  C7       1.0000 0.30170  0.54250  0.87690  Biso   1.000  C
  H7       1.0000 0.33720  0.57290  0.78840  Biso   1.000  H
  C8       1.0000 0.20130  0.54420  0.87240  Biso   1.000  C
  H8       1.0000 0.16810  0.57560  0.78240  Biso   1.000  H
  C9       1.0000 0.54250  0.30170  0.12310  Biso   1.000  C
  H9       1.0000 0.57290  0.33720  0.21160  Biso   1.000  H
  C10      1.0000 0.54420  0.20130  0.12760  Biso   1.000  C
  H10      1.0000 0.57560  0.16810  0.21760  Biso   1.000  H
  C11      1.0000 0.45750  0.69830  0.12310  Biso   1.000  C
  H11      1.0000 0.42710  0.66280  0.21160  Biso   1.000  H
  C12      1.0000 0.45580  0.79870  0.12760  Biso   1.000  C
  H12      1.0000 0.42440  0.83190  0.21760  Biso   1.000  H
  C13      1.0000 0.30170  0.45750  0.12310  Biso   1.000  C
  H13      1.0000 0.33720  0.42710  0.21160  Biso   1.000  H
  C14      1.0000 0.20130  0.45580  0.12760  Biso   1.000  C
  H14      1.0000 0.16810  0.42440  0.21760  Biso   1.000  H
  C15      1.0000 0.69830  0.54250  0.12310  Biso   1.000  C
  H15      1.0000 0.66280  0.57290  0.21160  Biso   1.000  H
  C16      1.0000 0.79870  0.54420  0.12760  Biso   1.000  C
  H16      1.0000 0.83190  0.57560  0.21760  Biso   1.000  H
  C17      1.0000 0.54250  0.69830  0.12310  Biso   1.000  C
  H17      1.0000 0.57290  0.66280  0.21160  Biso   1.000  H
  C18      1.0000 0.54420  0.79870  0.12760  Biso   1.000  C
  H18      1.0000 0.57560  0.83190  0.21760  Biso   1.000  H
  C19      1.0000 0.45750  0.30170  0.12310  Biso   1.000  C
  H19      1.0000 0.42710  0.33720  0.21160  Biso   1.000  H
  C20      1.0000 0.45580  0.20130  0.12760  Biso   1.000  C
  H20      1.0000 0.42440  0.16810  0.21760  Biso   1.000  H
  C21      1.0000 0.30170  0.54250  0.12310  Biso   1.000  C
  H21      1.0000 0.33720  0.57290  0.21160  Biso   1.000  H
  C22      1.0000 0.20130  0.54420  0.12760  Biso   1.000  C
  H22      1.0000 0.16810  0.57560  0.21760  Biso   1.000  H
  C23      1.0000 0.69830  0.45750  0.12310  Biso   1.000  C
  H23      1.0000 0.66280  0.42710  0.21160  Biso   1.000  H
  C24      1.0000 0.79870  0.45580  0.12760  Biso   1.000  C
  H24      1.0000 0.83190  0.42440  0.21760  Biso   1.000  H
  C25      1.0000 0.45750  0.69830  0.87690  Biso   1.000  C
  H25      1.0000 0.42710  0.66280  0.78840  Biso   1.000  H
  C26      1.0000 0.45580  0.79870  0.87240  Biso   1.000  C
  H26      1.0000 0.42440  0.83190  0.78240  Biso   1.000  H
  C27      1.0000 0.54250  0.30170  0.87690  Biso   1.000  C
  H27      1.0000 0.57290  0.33720  0.78840  Biso   1.000  H
  C28      1.0000 0.54420  0.20130  0.87240  Biso   1.000  C
  H28      1.0000 0.57560  0.16810  0.78240  Biso   1.000  H
  C29      1.0000 0.69830  0.54250  0.87690  Biso   1.000  C
  H29      1.0000 0.66280  0.57290  0.78840  Biso   1.000  H
  C30      1.0000 0.79870  0.54420  0.87240  Biso   1.000  C
  H30      1.0000 0.83190  0.57560  0.78240  Biso   1.000  H
  C31      1.0000 0.30170  0.45750  0.87690  Biso   1.000  C
  H31      1.0000 0.33720  0.42710  0.78840  Biso   1.000  H
  C32      1.0000 0.20130  0.45580  0.87240  Biso   1.000  C
  H32      1.0000 0.16810  0.42440  0.78240  Biso   1.000  H
  Cu1      1.0000 0.50000  0.50000  0.00000  Biso   1.000  Cu
  C33      1.0000 0.50000  0.14860  0.00000  Biso   1.000  C
  N1       1.0000 0.50000  0.35130  0.00000  Biso   1.000  N
  C34      1.0000 0.50000  0.04420  0.00000  Biso   1.000  C
  C35      1.0000 0.50000  0.85140  0.00000  Biso   1.000  C
  N2       1.0000 0.50000  0.64870  0.00000  Biso   1.000  N
  C36      1.0000 0.50000  0.95580  0.00000  Biso   1.000  C
  C37      1.0000 0.85140  0.50000  0.00000  Biso   1.000  C
  N3       1.0000 0.64870  0.50000  0.00000  Biso   1.000  N
  C38      1.0000 0.95580  0.50000  0.00000  Biso   1.000  C
  C39      1.0000 0.14860  0.50000  0.00000  Biso   1.000  C
  N4       1.0000 0.35130  0.50000  0.00000  Biso   1.000  N
  C40      1.0000 0.04420  0.50000  0.00000  Biso   1.000  C
