data_image0
_cell_length_a       13.649
_cell_length_b       13.649
_cell_length_c       8.092
_cell_angle_alpha    90
_cell_angle_beta     90
_cell_angle_gamma    90

_symmetry_space_group_name_H-M    "P 1"
_symmetry_int_tables_number       1

loop_
  _symmetry_equiv_pos_as_xyz
  'x, y, z'

loop_
  _atom_site_label
  _atom_site_occupancy
  _atom_site_fract_x
  _atom_site_fract_y
  _atom_site_fract_z
  _atom_site_thermal_displace_type
  _atom_site_B_iso_or_equiv
  _atom_site_type_symbol
  C1       1.0000 0.00000  0.30010  0.35430  Biso   1.000  C
  H1       1.0000 0.00000  0.33300  0.25080  Biso   1.000  H
  C2       1.0000 0.00000  0.19780  0.36240  Biso   1.000  C
  H2       1.0000 0.00000  0.16240  0.26130  Biso   1.000  H
  C3       1.0000 0.00000  0.69990  0.35430  Biso   1.000  C
  H3       1.0000 0.00000  0.66700  0.25080  Biso   1.000  H
  C4       1.0000 0.00000  0.80220  0.36240  Biso   1.000  C
  H4       1.0000 0.00000  0.83760  0.26130  Biso   1.000  H
  C5       1.0000 0.69990  0.00000  0.35430  Biso   1.000  C
  H5       1.0000 0.66700  0.00000  0.25080  Biso   1.000  H
  C6       1.0000 0.80220  0.00000  0.36240  Biso   1.000  C
  H6       1.0000 0.83760  0.00000  0.26130  Biso   1.000  H
  C7       1.0000 0.30010  0.00000  0.35430  Biso   1.000  C
  H7       1.0000 0.33300  0.00000  0.25080  Biso   1.000  H
  C8       1.0000 0.19780  0.00000  0.36240  Biso   1.000  C
  H8       1.0000 0.16240  0.00000  0.26130  Biso   1.000  H
  C9       1.0000 0.00000  0.30010  0.64570  Biso   1.000  C
  H9       1.0000 0.00000  0.33300  0.74920  Biso   1.000  H
  C10      1.0000 0.00000  0.19780  0.63760  Biso   1.000  C
  H10      1.0000 0.00000  0.16240  0.73870  Biso   1.000  H
  C11      1.0000 0.00000  0.69990  0.64570  Biso   1.000  C
  H11      1.0000 0.00000  0.66700  0.74920  Biso   1.000  H
  C12      1.0000 0.00000  0.80220  0.63760  Biso   1.000  C
  H12      1.0000 0.00000  0.83760  0.73870  Biso   1.000  H
  C13      1.0000 0.30010  0.00000  0.64570  Biso   1.000  C
  H13      1.0000 0.33300  0.00000  0.74920  Biso   1.000  H
  C14      1.0000 0.19780  0.00000  0.63760  Biso   1.000  C
  H14      1.0000 0.16240  0.00000  0.73870  Biso   1.000  H
  C15      1.0000 0.69990  0.00000  0.64570  Biso   1.000  C
  H15      1.0000 0.66700  0.00000  0.74920  Biso   1.000  H
  C16      1.0000 0.80220  0.00000  0.63760  Biso   1.000  C
  H16      1.0000 0.83760  0.00000  0.73870  Biso   1.000  H
  Cu1      1.0000 0.00000  0.00000  0.50000  Biso   1.000  Cu
  N1       1.0000 0.00000  0.14760  0.50000  Biso   1.000  N
  C17      1.0000 0.00000  0.45690  0.50000  Biso   1.000  C
  C18      1.0000 0.00000  0.35190  0.50000  Biso   1.000  C
  N2       1.0000 0.00000  0.85240  0.50000  Biso   1.000  N
  C19      1.0000 0.00000  0.54310  0.50000  Biso   1.000  C
  C20      1.0000 0.00000  0.64810  0.50000  Biso   1.000  C
  N3       1.0000 0.85240  0.00000  0.50000  Biso   1.000  N
  C21      1.0000 0.54310  0.00000  0.50000  Biso   1.000  C
  C22      1.0000 0.64810  0.00000  0.50000  Biso   1.000  C
  N4       1.0000 0.14760  0.00000  0.50000  Biso   1.000  N
  C23      1.0000 0.45690  0.00000  0.50000  Biso   1.000  C
  C24      1.0000 0.35190  0.00000  0.50000  Biso   1.000  C
  C25      1.0000 0.50000  0.80010  0.85430  Biso   1.000  C
  H17      1.0000 0.50000  0.83300  0.75080  Biso   1.000  H
  C26      1.0000 0.50000  0.69780  0.86240  Biso   1.000  C
  H18      1.0000 0.50000  0.66240  0.76130  Biso   1.000  H
  C27      1.0000 0.50000  0.19990  0.85430  Biso   1.000  C
  H19      1.0000 0.50000  0.16700  0.75080  Biso   1.000  H
  C28      1.0000 0.50000  0.30220  0.86240  Biso   1.000  C
  H20      1.0000 0.50000  0.33760  0.76130  Biso   1.000  H
  C29      1.0000 0.19990  0.50000  0.85430  Biso   1.000  C
  H21      1.0000 0.16700  0.50000  0.75080  Biso   1.000  H
  C30      1.0000 0.30220  0.50000  0.86240  Biso   1.000  C
  H22      1.0000 0.33760  0.50000  0.76130  Biso   1.000  H
  C31      1.0000 0.80010  0.50000  0.85430  Biso   1.000  C
  H23      1.0000 0.83300  0.50000  0.75080  Biso   1.000  H
  C32      1.0000 0.69780  0.50000  0.86240  Biso   1.000  C
  H24      1.0000 0.66240  0.50000  0.76130  Biso   1.000  H
  C33      1.0000 0.50000  0.80010  0.14570  Biso   1.000  C
  H25      1.0000 0.50000  0.83300  0.24920  Biso   1.000  H
  C34      1.0000 0.50000  0.69780  0.13760  Biso   1.000  C
  H26      1.0000 0.50000  0.66240  0.23870  Biso   1.000  H
  C35      1.0000 0.50000  0.19990  0.14570  Biso   1.000  C
  H27      1.0000 0.50000  0.16700  0.24920  Biso   1.000  H
  C36      1.0000 0.50000  0.30220  0.13760  Biso   1.000  C
  H28      1.0000 0.50000  0.33760  0.23870  Biso   1.000  H
  C37      1.0000 0.80010  0.50000  0.14570  Biso   1.000  C
  H29      1.0000 0.83300  0.50000  0.24920  Biso   1.000  H
  C38      1.0000 0.69780  0.50000  0.13760  Biso   1.000  C
  H30      1.0000 0.66240  0.50000  0.23870  Biso   1.000  H
  C39      1.0000 0.19990  0.50000  0.14570  Biso   1.000  C
  H31      1.0000 0.16700  0.50000  0.24920  Biso   1.000  H
  C40      1.0000 0.30220  0.50000  0.13760  Biso   1.000  C
  H32      1.0000 0.33760  0.50000  0.23870  Biso   1.000  H
  Cu2      1.0000 0.50000  0.50000  0.00000  Biso   1.000  Cu
  N5       1.0000 0.50000  0.64760  0.00000  Biso   1.000  N
  C41      1.0000 0.50000  0.95690  0.00000  Biso   1.000  C
  C42      1.0000 0.50000  0.85190  0.00000  Biso   1.000  C
  N6       1.0000 0.50000  0.35240  0.00000  Biso   1.000  N
  C43      1.0000 0.50000  0.04310  0.00000  Biso   1.000  C
  C44      1.0000 0.50000  0.14810  0.00000  Biso   1.000  C
  N7       1.0000 0.35240  0.50000  0.00000  Biso   1.000  N
  C45      1.0000 0.04310  0.50000  0.00000  Biso   1.000  C
  C46      1.0000 0.14810  0.50000  0.00000  Biso   1.000  C
  N8       1.0000 0.64760  0.50000  0.00000  Biso   1.000  N
  C47      1.0000 0.95690  0.50000  0.00000  Biso   1.000  C
  C48      1.0000 0.85190  0.50000  0.00000  Biso   1.000  C
