data_image0
_cell_length_a       10.1447
_cell_length_b       13.8559
_cell_length_c       26.1423
_cell_angle_alpha    90
_cell_angle_beta     90
_cell_angle_gamma    90

_symmetry_space_group_name_H-M    "P 1"
_symmetry_int_tables_number       1

loop_
  _symmetry_equiv_pos_as_xyz
  'x, y, z'

loop_
  _atom_site_label
  _atom_site_occupancy
  _atom_site_fract_x
  _atom_site_fract_y
  _atom_site_fract_z
  _atom_site_thermal_displace_type
  _atom_site_B_iso_or_equiv
  _atom_site_type_symbol
  Pb1      1.0000 0.70884  0.30186  0.83404  Biso   1.000  Pb
  O1       1.0000 0.47240  0.32370  0.83680  Biso   1.000  O
  O2       1.0000 0.55670  0.46100  0.86593  Biso   1.000  O
  O3       1.0000 0.34720  0.67480  0.72310  Biso   1.000  O
  O4       1.0000 0.13140  0.69550  0.72710  Biso   1.000  O
  O5       1.0000 0.87310  0.47700  0.85621  Biso   1.000  O
  O6       1.0000 0.97900  0.52800  0.92429  Biso   1.000  O
  O7       1.0000 0.26110  0.12180  0.04284  Biso   1.000  O
  O8       1.0000 0.08810  0.06340  0.00000  Biso   1.000  O
  C1       1.0000 0.21590  0.44520  0.86370  Biso   1.000  C
  C2       1.0000 0.33590  0.46300  0.83840  Biso   1.000  C
  C3       1.0000 0.34140  0.53300  0.80010  Biso   1.000  C
  H1       1.0000 0.42180  0.54620  0.78450  Biso   1.000  H
  C4       1.0000 0.22970  0.58360  0.78470  Biso   1.000  C
  C5       1.0000 0.11200  0.56530  0.80970  Biso   1.000  C
  H2       1.0000 0.03590  0.59730  0.79940  Biso   1.000  H
  C6       1.0000 0.10610  0.49940  0.85010  Biso   1.000  C
  C7       1.0000 0.20570  0.36650  0.90270  Biso   1.000  C
  C8       1.0000 0.29430  0.35680  0.94230  Biso   1.000  C
  H3       1.0000 0.36220  0.40130  0.94590  Biso   1.000  H
  C9       1.0000 0.28320  0.28110  0.97680  Biso   1.000  C
  H4       1.0000 0.34320  0.27560  0.00350  Biso   1.000  H
  C10      1.0000 0.18350  0.21390  0.97170  Biso   1.000  C
  C11      1.0000 0.09440  0.22190  0.93220  Biso   1.000  C
  H5       1.0000 0.02820  0.17600  0.92840  Biso   1.000  H
  C12      1.0000 0.10360  0.29900  0.89790  Biso   1.000  C
  H6       1.0000 0.04190  0.30550  0.87180  Biso   1.000  H
  C13      1.0000 0.46330  0.41110  0.84880  Biso   1.000  C
  C14      1.0000 0.23630  0.65700  0.74170  Biso   1.000  C
  C15      1.0000 0.97770  0.49930  0.87940  Biso   1.000  C
  C16      1.0000 0.17400  0.12650  0.00680  Biso   1.000  C
  Pb2      1.0000 0.29116  0.80186  0.66596  Biso   1.000  Pb
  O9       1.0000 0.52760  0.82370  0.66320  Biso   1.000  O
  O10      1.0000 0.44330  0.96100  0.63407  Biso   1.000  O
  O11      1.0000 0.65280  0.17480  0.77690  Biso   1.000  O
  O12      1.0000 0.86860  0.19550  0.77290  Biso   1.000  O
  O13      1.0000 0.12690  0.97700  0.64379  Biso   1.000  O
  O14      1.0000 0.02100  0.02800  0.57571  Biso   1.000  O
  O15      1.0000 0.73890  0.62180  0.45716  Biso   1.000  O
  O16      1.0000 0.91190  0.56340  0.50000  Biso   1.000  O
  C17      1.0000 0.78410  0.94520  0.63630  Biso   1.000  C
  C18      1.0000 0.66410  0.96300  0.66160  Biso   1.000  C
  C19      1.0000 0.65860  0.03300  0.69990  Biso   1.000  C
  H7       1.0000 0.57820  0.04620  0.71550  Biso   1.000  H
  C20      1.0000 0.77030  0.08360  0.71530  Biso   1.000  C
  C21      1.0000 0.88800  0.06530  0.69030  Biso   1.000  C
  H8       1.0000 0.96410  0.09730  0.70060  Biso   1.000  H
  C22      1.0000 0.89390  0.99940  0.64990  Biso   1.000  C
  C23      1.0000 0.79430  0.86650  0.59730  Biso   1.000  C
  C24      1.0000 0.70570  0.85680  0.55770  Biso   1.000  C
  H9       1.0000 0.63780  0.90130  0.55410  Biso   1.000  H
  C25      1.0000 0.71680  0.78110  0.52320  Biso   1.000  C
  H10      1.0000 0.65680  0.77560  0.49650  Biso   1.000  H
  C26      1.0000 0.81650  0.71390  0.52830  Biso   1.000  C
  C27      1.0000 0.90560  0.72190  0.56780  Biso   1.000  C
  H11      1.0000 0.97180  0.67600  0.57160  Biso   1.000  H
  C28      1.0000 0.89640  0.79900  0.60210  Biso   1.000  C
  H12      1.0000 0.95810  0.80550  0.62820  Biso   1.000  H
  C29      1.0000 0.53670  0.91110  0.65120  Biso   1.000  C
  C30      1.0000 0.76370  0.15700  0.75830  Biso   1.000  C
  C31      1.0000 0.02230  0.99930  0.62060  Biso   1.000  C
  C32      1.0000 0.82600  0.62650  0.49320  Biso   1.000  C
  Pb3      1.0000 0.79116  0.69814  0.33404  Biso   1.000  Pb
  O17      1.0000 0.02760  0.67630  0.33680  Biso   1.000  O
  O18      1.0000 0.94330  0.53900  0.36593  Biso   1.000  O
  O19      1.0000 0.15280  0.32520  0.22310  Biso   1.000  O
  O20      1.0000 0.36860  0.30450  0.22710  Biso   1.000  O
  O21      1.0000 0.62690  0.52300  0.35621  Biso   1.000  O
  O22      1.0000 0.52100  0.47200  0.42429  Biso   1.000  O
  O23      1.0000 0.23890  0.87820  0.54284  Biso   1.000  O
  O24      1.0000 0.41190  0.93660  0.50000  Biso   1.000  O
  C33      1.0000 0.28410  0.55480  0.36370  Biso   1.000  C
  C34      1.0000 0.16410  0.53700  0.33840  Biso   1.000  C
  C35      1.0000 0.15860  0.46700  0.30010  Biso   1.000  C
  H13      1.0000 0.07820  0.45380  0.28450  Biso   1.000  H
  C36      1.0000 0.27030  0.41640  0.28470  Biso   1.000  C
  C37      1.0000 0.38800  0.43470  0.30970  Biso   1.000  C
  H14      1.0000 0.46410  0.40270  0.29940  Biso   1.000  H
  C38      1.0000 0.39390  0.50060  0.35010  Biso   1.000  C
  C39      1.0000 0.29430  0.63350  0.40270  Biso   1.000  C
  C40      1.0000 0.20570  0.64320  0.44230  Biso   1.000  C
  H15      1.0000 0.13780  0.59870  0.44590  Biso   1.000  H
  C41      1.0000 0.21680  0.71890  0.47680  Biso   1.000  C
  H16      1.0000 0.15680  0.72440  0.50350  Biso   1.000  H
  C42      1.0000 0.31650  0.78610  0.47170  Biso   1.000  C
  C43      1.0000 0.40560  0.77810  0.43220  Biso   1.000  C
  H17      1.0000 0.47180  0.82400  0.42840  Biso   1.000  H
  C44      1.0000 0.39640  0.70100  0.39790  Biso   1.000  C
  H18      1.0000 0.45810  0.69450  0.37180  Biso   1.000  H
  C45      1.0000 0.03670  0.58890  0.34880  Biso   1.000  C
  C46      1.0000 0.26370  0.34300  0.24170  Biso   1.000  C
  C47      1.0000 0.52230  0.50070  0.37940  Biso   1.000  C
  C48      1.0000 0.32600  0.87350  0.50680  Biso   1.000  C
  Pb4      1.0000 0.20884  0.19814  0.16596  Biso   1.000  Pb
  O25      1.0000 0.97240  0.17630  0.16320  Biso   1.000  O
  O26      1.0000 0.05670  0.03900  0.13407  Biso   1.000  O
  O27      1.0000 0.84720  0.82520  0.27690  Biso   1.000  O
  O28      1.0000 0.63140  0.80450  0.27290  Biso   1.000  O
  O29      1.0000 0.37310  0.02300  0.14379  Biso   1.000  O
  O30      1.0000 0.47900  0.97200  0.07571  Biso   1.000  O
  O31      1.0000 0.76110  0.37820  0.95716  Biso   1.000  O
  O32      1.0000 0.58810  0.43660  0.00000  Biso   1.000  O
  C49      1.0000 0.71590  0.05480  0.13630  Biso   1.000  C
  C50      1.0000 0.83590  0.03700  0.16160  Biso   1.000  C
  C51      1.0000 0.84140  0.96700  0.19990  Biso   1.000  C
  H19      1.0000 0.92180  0.95380  0.21550  Biso   1.000  H
  C52      1.0000 0.72970  0.91640  0.21530  Biso   1.000  C
  C53      1.0000 0.61200  0.93470  0.19030  Biso   1.000  C
  H20      1.0000 0.53590  0.90270  0.20060  Biso   1.000  H
  C54      1.0000 0.60610  0.00060  0.14990  Biso   1.000  C
  C55      1.0000 0.70570  0.13350  0.09730  Biso   1.000  C
  C56      1.0000 0.79430  0.14320  0.05770  Biso   1.000  C
  H21      1.0000 0.86220  0.09870  0.05410  Biso   1.000  H
  C57      1.0000 0.78320  0.21890  0.02320  Biso   1.000  C
  H22      1.0000 0.84320  0.22440  0.99650  Biso   1.000  H
  C58      1.0000 0.68350  0.28610  0.02830  Biso   1.000  C
  C59      1.0000 0.59440  0.27810  0.06780  Biso   1.000  C
  H23      1.0000 0.52820  0.32400  0.07160  Biso   1.000  H
  C60      1.0000 0.60360  0.20100  0.10210  Biso   1.000  C
  H24      1.0000 0.54190  0.19450  0.12820  Biso   1.000  H
  C61      1.0000 0.96330  0.08890  0.15120  Biso   1.000  C
  C62      1.0000 0.73630  0.84300  0.25830  Biso   1.000  C
  C63      1.0000 0.47770  0.00070  0.12060  Biso   1.000  C
  C64      1.0000 0.67400  0.37350  0.99320  Biso   1.000  C
