data_image0
_cell_length_a       20.75
_cell_length_b       11.66
_cell_length_c       20.045
_cell_angle_alpha    90
_cell_angle_beta     105.057
_cell_angle_gamma    90

_symmetry_space_group_name_H-M    "P 1"
_symmetry_int_tables_number       1

loop_
  _symmetry_equiv_pos_as_xyz
  'x, y, z'

loop_
  _atom_site_label
  _atom_site_occupancy
  _atom_site_fract_x
  _atom_site_fract_y
  _atom_site_fract_z
  _atom_site_thermal_displace_type
  _atom_site_B_iso_or_equiv
  _atom_site_type_symbol
  Cd1      1.0000 0.25166  0.35573  0.17931  Biso   1.000  Cd
  N1       1.0000 0.27047  0.50740  0.11043  Biso   1.000  N
  C1       1.0000 0.24930  0.49690  0.04200  Biso   1.000  C
  H1       1.0000 0.23970  0.42380  0.02350  Biso   1.000  H
  C2       1.0000 0.24070  0.58880  0.99710  Biso   1.000  C
  H2       1.0000 0.22570  0.57710  0.94970  Biso   1.000  H
  C3       1.0000 0.25470  0.69860  0.02330  Biso   1.000  C
  C4       1.0000 0.27770  0.70910  0.09430  Biso   1.000  C
  H3       1.0000 0.28850  0.78090  0.11430  Biso   1.000  H
  C5       1.0000 0.28450  0.61300  0.13510  Biso   1.000  C
  H4       1.0000 0.29970  0.62230  0.18260  Biso   1.000  H
  N2       1.0000 0.84820  0.76470  0.14650  Biso   1.000  N
  N3       1.0000 0.14870  0.46520  0.16350  Biso   1.000  N
  C6       1.0000 0.90660  0.82040  0.16050  Biso   1.000  C
  H5       1.0000 0.90690  0.89780  0.17190  Biso   1.000  H
  C7       1.0000 0.96560  0.77020  0.15910  Biso   1.000  C
  H6       1.0000 0.00460  0.81350  0.16960  Biso   1.000  H
  C8       1.0000 0.96790  0.65530  0.14230  Biso   1.000  C
  C9       1.0000 0.90670  0.59810  0.12400  Biso   1.000  C
  H7       1.0000 0.90450  0.52190  0.10980  Biso   1.000  H
  C10      1.0000 0.84950  0.65540  0.12710  Biso   1.000  C
  H8       1.0000 0.80940  0.61550  0.11490  Biso   1.000  H
  C11      1.0000 0.03110  0.59280  0.14670  Biso   1.000  C
  C12      1.0000 0.08940  0.62280  0.19370  Biso   1.000  C
  H9       1.0000 0.09070  0.68810  0.22070  Biso   1.000  H
  C13      1.0000 0.14590  0.55780  0.20140  Biso   1.000  C
  H10      1.0000 0.18420  0.57950  0.23470  Biso   1.000  H
  C14      1.0000 0.09350  0.43920  0.11530  Biso   1.000  C
  H11      1.0000 0.09470  0.37700  0.08650  Biso   1.000  H
  C15      1.0000 0.03500  0.49870  0.10550  Biso   1.000  C
  H12      1.0000 0.99770  0.47610  0.07110  Biso   1.000  H
  N4       1.0000 0.65180  0.73530  0.85350  Biso   1.000  N
  N5       1.0000 0.35130  0.03480  0.83650  Biso   1.000  N
  C16      1.0000 0.59340  0.67960  0.83950  Biso   1.000  C
  H13      1.0000 0.59310  0.60220  0.82810  Biso   1.000  H
  C17      1.0000 0.53440  0.72980  0.84090  Biso   1.000  C
  H14      1.0000 0.49540  0.68650  0.83040  Biso   1.000  H
  C18      1.0000 0.53210  0.84470  0.85770  Biso   1.000  C
  C19      1.0000 0.59330  0.90190  0.87600  Biso   1.000  C
  H15      1.0000 0.59550  0.97810  0.89020  Biso   1.000  H
  C20      1.0000 0.65050  0.84460  0.87290  Biso   1.000  C
  H16      1.0000 0.69060  0.88450  0.88510  Biso   1.000  H
  C21      1.0000 0.46890  0.90720  0.85330  Biso   1.000  C
  C22      1.0000 0.41060  0.87720  0.80630  Biso   1.000  C
  H17      1.0000 0.40930  0.81190  0.77930  Biso   1.000  H
  C23      1.0000 0.35410  0.94220  0.79860  Biso   1.000  C
  H18      1.0000 0.31580  0.92050  0.76530  Biso   1.000  H
  C24      1.0000 0.40650  0.06080  0.88470  Biso   1.000  C
  H19      1.0000 0.40530  0.12300  0.91350  Biso   1.000  H
  C25      1.0000 0.46500  0.00130  0.89450  Biso   1.000  C
  H20      1.0000 0.50230  0.02390  0.92890  Biso   1.000  H
  Cd2      1.0000 0.24834  0.14427  0.82069  Biso   1.000  Cd
  N6       1.0000 0.22953  0.99260  0.88957  Biso   1.000  N
  C26      1.0000 0.25070  0.00310  0.95800  Biso   1.000  C
  H21      1.0000 0.26030  0.07620  0.97650  Biso   1.000  H
  C27      1.0000 0.25930  0.91120  0.00290  Biso   1.000  C
  H22      1.0000 0.27430  0.92290  0.05030  Biso   1.000  H
  C28      1.0000 0.24530  0.80140  0.97670  Biso   1.000  C
  C29      1.0000 0.22230  0.79090  0.90570  Biso   1.000  C
  H23      1.0000 0.21150  0.71910  0.88570  Biso   1.000  H
  C30      1.0000 0.21550  0.88700  0.86490  Biso   1.000  C
  H24      1.0000 0.20030  0.87770  0.81740  Biso   1.000  H
  N7       1.0000 0.65180  0.26470  0.35350  Biso   1.000  N
  N8       1.0000 0.35130  0.96520  0.33650  Biso   1.000  N
  C31      1.0000 0.59340  0.32040  0.33950  Biso   1.000  C
  H25      1.0000 0.59310  0.39780  0.32810  Biso   1.000  H
  C32      1.0000 0.53440  0.27020  0.34090  Biso   1.000  C
  H26      1.0000 0.49540  0.31350  0.33040  Biso   1.000  H
  C33      1.0000 0.53210  0.15530  0.35770  Biso   1.000  C
  C34      1.0000 0.59330  0.09810  0.37600  Biso   1.000  C
  H27      1.0000 0.59550  0.02190  0.39020  Biso   1.000  H
  C35      1.0000 0.65050  0.15540  0.37290  Biso   1.000  C
  H28      1.0000 0.69060  0.11550  0.38510  Biso   1.000  H
  C36      1.0000 0.46890  0.09280  0.35330  Biso   1.000  C
  C37      1.0000 0.41060  0.12280  0.30630  Biso   1.000  C
  H29      1.0000 0.40930  0.18810  0.27930  Biso   1.000  H
  C38      1.0000 0.35410  0.05780  0.29860  Biso   1.000  C
  H30      1.0000 0.31580  0.07950  0.26530  Biso   1.000  H
  C39      1.0000 0.40650  0.93920  0.38470  Biso   1.000  C
  H31      1.0000 0.40530  0.87700  0.41350  Biso   1.000  H
  C40      1.0000 0.46500  0.99870  0.39450  Biso   1.000  C
  H32      1.0000 0.50230  0.97610  0.42890  Biso   1.000  H
  Cd3      1.0000 0.24834  0.85573  0.32069  Biso   1.000  Cd
  N9       1.0000 0.22953  0.00740  0.38957  Biso   1.000  N
  C41      1.0000 0.25070  0.99690  0.45800  Biso   1.000  C
  H33      1.0000 0.26030  0.92380  0.47650  Biso   1.000  H
  C42      1.0000 0.25930  0.08880  0.50290  Biso   1.000  C
  H34      1.0000 0.27430  0.07710  0.55030  Biso   1.000  H
  C43      1.0000 0.24530  0.19860  0.47670  Biso   1.000  C
  C44      1.0000 0.22230  0.20910  0.40570  Biso   1.000  C
  H35      1.0000 0.21150  0.28090  0.38570  Biso   1.000  H
  C45      1.0000 0.21550  0.11300  0.36490  Biso   1.000  C
  H36      1.0000 0.20030  0.12230  0.31740  Biso   1.000  H
  Cd4      1.0000 0.25166  0.64427  0.67931  Biso   1.000  Cd
  N10      1.0000 0.27047  0.49260  0.61043  Biso   1.000  N
  C46      1.0000 0.24930  0.50310  0.54200  Biso   1.000  C
  H37      1.0000 0.23970  0.57620  0.52350  Biso   1.000  H
  C47      1.0000 0.24070  0.41120  0.49710  Biso   1.000  C
  H38      1.0000 0.22570  0.42290  0.44970  Biso   1.000  H
  C48      1.0000 0.25470  0.30140  0.52330  Biso   1.000  C
  C49      1.0000 0.27770  0.29090  0.59430  Biso   1.000  C
  H39      1.0000 0.28850  0.21910  0.61430  Biso   1.000  H
  C50      1.0000 0.28450  0.38700  0.63510  Biso   1.000  C
  H40      1.0000 0.29970  0.37770  0.68260  Biso   1.000  H
  N11      1.0000 0.84820  0.23530  0.64650  Biso   1.000  N
  N12      1.0000 0.14870  0.53480  0.66350  Biso   1.000  N
  C51      1.0000 0.90660  0.17960  0.66050  Biso   1.000  C
  H41      1.0000 0.90690  0.10220  0.67190  Biso   1.000  H
  C52      1.0000 0.96560  0.22980  0.65910  Biso   1.000  C
  H42      1.0000 0.00460  0.18650  0.66960  Biso   1.000  H
  C53      1.0000 0.96790  0.34470  0.64230  Biso   1.000  C
  C54      1.0000 0.90670  0.40190  0.62400  Biso   1.000  C
  H43      1.0000 0.90450  0.47810  0.60980  Biso   1.000  H
  C55      1.0000 0.84950  0.34460  0.62710  Biso   1.000  C
  H44      1.0000 0.80940  0.38450  0.61490  Biso   1.000  H
  C56      1.0000 0.03110  0.40720  0.64670  Biso   1.000  C
  C57      1.0000 0.08940  0.37720  0.69370  Biso   1.000  C
  H45      1.0000 0.09070  0.31190  0.72070  Biso   1.000  H
  C58      1.0000 0.14590  0.44220  0.70140  Biso   1.000  C
  H46      1.0000 0.18420  0.42050  0.73470  Biso   1.000  H
  C59      1.0000 0.09350  0.56080  0.61530  Biso   1.000  C
  H47      1.0000 0.09470  0.62300  0.58650  Biso   1.000  H
  C60      1.0000 0.03500  0.50130  0.60550  Biso   1.000  C
  H48      1.0000 0.99770  0.52390  0.57110  Biso   1.000  H
  N13      1.0000 0.34820  0.26470  0.14650  Biso   1.000  N
  N14      1.0000 0.64870  0.96520  0.16350  Biso   1.000  N
  C61      1.0000 0.40660  0.32040  0.16050  Biso   1.000  C
  H49      1.0000 0.40690  0.39780  0.17190  Biso   1.000  H
  C62      1.0000 0.46560  0.27020  0.15910  Biso   1.000  C
  H50      1.0000 0.50460  0.31350  0.16960  Biso   1.000  H
  C63      1.0000 0.46790  0.15530  0.14230  Biso   1.000  C
  C64      1.0000 0.40670  0.09810  0.12400  Biso   1.000  C
  H51      1.0000 0.40450  0.02190  0.10980  Biso   1.000  H
  C65      1.0000 0.34950  0.15540  0.12710  Biso   1.000  C
  H52      1.0000 0.30940  0.11550  0.11490  Biso   1.000  H
  C66      1.0000 0.53110  0.09280  0.14670  Biso   1.000  C
  C67      1.0000 0.58940  0.12280  0.19370  Biso   1.000  C
  H53      1.0000 0.59070  0.18810  0.22070  Biso   1.000  H
  C68      1.0000 0.64590  0.05780  0.20140  Biso   1.000  C
  H54      1.0000 0.68420  0.07950  0.23470  Biso   1.000  H
  C69      1.0000 0.59350  0.93920  0.11530  Biso   1.000  C
  H55      1.0000 0.59470  0.87700  0.08650  Biso   1.000  H
  C70      1.0000 0.53500  0.99870  0.10550  Biso   1.000  C
  H56      1.0000 0.49770  0.97610  0.07110  Biso   1.000  H
  Cd5      1.0000 0.75166  0.85573  0.17931  Biso   1.000  Cd
  N15      1.0000 0.77047  0.00740  0.11043  Biso   1.000  N
  C71      1.0000 0.74930  0.99690  0.04200  Biso   1.000  C
  H57      1.0000 0.73970  0.92380  0.02350  Biso   1.000  H
  C72      1.0000 0.74070  0.08880  0.99710  Biso   1.000  C
  H58      1.0000 0.72570  0.07710  0.94970  Biso   1.000  H
  C73      1.0000 0.75470  0.19860  0.02330  Biso   1.000  C
  C74      1.0000 0.77770  0.20910  0.09430  Biso   1.000  C
  H59      1.0000 0.78850  0.28090  0.11430  Biso   1.000  H
  C75      1.0000 0.78450  0.11300  0.13510  Biso   1.000  C
  H60      1.0000 0.79970  0.12230  0.18260  Biso   1.000  H
  Cd6      1.0000 0.74834  0.64427  0.82069  Biso   1.000  Cd
  N16      1.0000 0.72953  0.49260  0.88957  Biso   1.000  N
  C76      1.0000 0.75070  0.50310  0.95800  Biso   1.000  C
  H61      1.0000 0.76030  0.57620  0.97650  Biso   1.000  H
  C77      1.0000 0.75930  0.41120  0.00290  Biso   1.000  C
  H62      1.0000 0.77430  0.42290  0.05030  Biso   1.000  H
  C78      1.0000 0.74530  0.30140  0.97670  Biso   1.000  C
  C79      1.0000 0.72230  0.29090  0.90570  Biso   1.000  C
  H63      1.0000 0.71150  0.21910  0.88570  Biso   1.000  H
  C80      1.0000 0.71550  0.38700  0.86490  Biso   1.000  C
  H64      1.0000 0.70030  0.37770  0.81740  Biso   1.000  H
  N17      1.0000 0.15180  0.23530  0.85350  Biso   1.000  N
  N18      1.0000 0.85130  0.53480  0.83650  Biso   1.000  N
  C81      1.0000 0.09340  0.17960  0.83950  Biso   1.000  C
  H65      1.0000 0.09310  0.10220  0.82810  Biso   1.000  H
  C82      1.0000 0.03440  0.22980  0.84090  Biso   1.000  C
  H66      1.0000 0.99540  0.18650  0.83040  Biso   1.000  H
  C83      1.0000 0.03210  0.34470  0.85770  Biso   1.000  C
  C84      1.0000 0.09330  0.40190  0.87600  Biso   1.000  C
  H67      1.0000 0.09550  0.47810  0.89020  Biso   1.000  H
  C85      1.0000 0.15050  0.34460  0.87290  Biso   1.000  C
  H68      1.0000 0.19060  0.38450  0.88510  Biso   1.000  H
  C86      1.0000 0.96890  0.40720  0.85330  Biso   1.000  C
  C87      1.0000 0.91060  0.37720  0.80630  Biso   1.000  C
  H69      1.0000 0.90930  0.31190  0.77930  Biso   1.000  H
  C88      1.0000 0.85410  0.44220  0.79860  Biso   1.000  C
  H70      1.0000 0.81580  0.42050  0.76530  Biso   1.000  H
  C89      1.0000 0.90650  0.56080  0.88470  Biso   1.000  C
  H71      1.0000 0.90530  0.62300  0.91350  Biso   1.000  H
  C90      1.0000 0.96500  0.50130  0.89450  Biso   1.000  C
  H72      1.0000 0.00230  0.52390  0.92890  Biso   1.000  H
  Cd7      1.0000 0.74834  0.35573  0.32069  Biso   1.000  Cd
  N19      1.0000 0.72953  0.50740  0.38957  Biso   1.000  N
  C91      1.0000 0.75070  0.49690  0.45800  Biso   1.000  C
  H73      1.0000 0.76030  0.42380  0.47650  Biso   1.000  H
  C92      1.0000 0.75930  0.58880  0.50290  Biso   1.000  C
  H74      1.0000 0.77430  0.57710  0.55030  Biso   1.000  H
  C93      1.0000 0.74530  0.69860  0.47670  Biso   1.000  C
  C94      1.0000 0.72230  0.70910  0.40570  Biso   1.000  C
  H75      1.0000 0.71150  0.78090  0.38570  Biso   1.000  H
  C95      1.0000 0.71550  0.61300  0.36490  Biso   1.000  C
  H76      1.0000 0.70030  0.62230  0.31740  Biso   1.000  H
  N20      1.0000 0.15180  0.76470  0.35350  Biso   1.000  N
  N21      1.0000 0.85130  0.46520  0.33650  Biso   1.000  N
  C96      1.0000 0.09340  0.82040  0.33950  Biso   1.000  C
  H77      1.0000 0.09310  0.89780  0.32810  Biso   1.000  H
  C97      1.0000 0.03440  0.77020  0.34090  Biso   1.000  C
  H78      1.0000 0.99540  0.81350  0.33040  Biso   1.000  H
  C98      1.0000 0.03210  0.65530  0.35770  Biso   1.000  C
  C99      1.0000 0.09330  0.59810  0.37600  Biso   1.000  C
  H79      1.0000 0.09550  0.52190  0.39020  Biso   1.000  H
  C100     1.0000 0.15050  0.65540  0.37290  Biso   1.000  C
  H80      1.0000 0.19060  0.61550  0.38510  Biso   1.000  H
  C101     1.0000 0.96890  0.59280  0.35330  Biso   1.000  C
  C102     1.0000 0.91060  0.62280  0.30630  Biso   1.000  C
  H81      1.0000 0.90930  0.68810  0.27930  Biso   1.000  H
  C103     1.0000 0.85410  0.55780  0.29860  Biso   1.000  C
  H82      1.0000 0.81580  0.57950  0.26530  Biso   1.000  H
  C104     1.0000 0.90650  0.43920  0.38470  Biso   1.000  C
  H83      1.0000 0.90530  0.37700  0.41350  Biso   1.000  H
  C105     1.0000 0.96500  0.49870  0.39450  Biso   1.000  C
  H84      1.0000 0.00230  0.47610  0.42890  Biso   1.000  H
  N22      1.0000 0.34820  0.73530  0.64650  Biso   1.000  N
  N23      1.0000 0.64870  0.03480  0.66350  Biso   1.000  N
  C106     1.0000 0.40660  0.67960  0.66050  Biso   1.000  C
  H85      1.0000 0.40690  0.60220  0.67190  Biso   1.000  H
  C107     1.0000 0.46560  0.72980  0.65910  Biso   1.000  C
  H86      1.0000 0.50460  0.68650  0.66960  Biso   1.000  H
  C108     1.0000 0.46790  0.84470  0.64230  Biso   1.000  C
  C109     1.0000 0.40670  0.90190  0.62400  Biso   1.000  C
  H87      1.0000 0.40450  0.97810  0.60980  Biso   1.000  H
  C110     1.0000 0.34950  0.84460  0.62710  Biso   1.000  C
  H88      1.0000 0.30940  0.88450  0.61490  Biso   1.000  H
  C111     1.0000 0.53110  0.90720  0.64670  Biso   1.000  C
  C112     1.0000 0.58940  0.87720  0.69370  Biso   1.000  C
  H89      1.0000 0.59070  0.81190  0.72070  Biso   1.000  H
  C113     1.0000 0.64590  0.94220  0.70140  Biso   1.000  C
  H90      1.0000 0.68420  0.92050  0.73470  Biso   1.000  H
  C114     1.0000 0.59350  0.06080  0.61530  Biso   1.000  C
  H91      1.0000 0.59470  0.12300  0.58650  Biso   1.000  H
  C115     1.0000 0.53500  0.00130  0.60550  Biso   1.000  C
  H92      1.0000 0.49770  0.02390  0.57110  Biso   1.000  H
  Cd8      1.0000 0.75166  0.14427  0.67931  Biso   1.000  Cd
  N24      1.0000 0.77047  0.99260  0.61043  Biso   1.000  N
  C116     1.0000 0.74930  0.00310  0.54200  Biso   1.000  C
  H93      1.0000 0.73970  0.07620  0.52350  Biso   1.000  H
  C117     1.0000 0.74070  0.91120  0.49710  Biso   1.000  C
  H94      1.0000 0.72570  0.92290  0.44970  Biso   1.000  H
  C118     1.0000 0.75470  0.80140  0.52330  Biso   1.000  C
  C119     1.0000 0.77770  0.79090  0.59430  Biso   1.000  C
  H95      1.0000 0.78850  0.71910  0.61430  Biso   1.000  H
  C120     1.0000 0.78450  0.88700  0.63510  Biso   1.000  C
  H96      1.0000 0.79970  0.87770  0.68260  Biso   1.000  H
