data_image0
_cell_length_a       11.3058
_cell_length_b       17.284
_cell_length_c       37.082
_cell_angle_alpha    90
_cell_angle_beta     90
_cell_angle_gamma    90

_symmetry_space_group_name_H-M    "P 1"
_symmetry_int_tables_number       1

loop_
  _symmetry_equiv_pos_as_xyz
  'x, y, z'

loop_
  _atom_site_label
  _atom_site_occupancy
  _atom_site_fract_x
  _atom_site_fract_y
  _atom_site_fract_z
  _atom_site_thermal_displace_type
  _atom_site_B_iso_or_equiv
  _atom_site_type_symbol
  O1       1.0000 0.29620  0.23990  0.10598  Biso   1.000  O
  O2       1.0000 0.21760  0.19540  0.15736  Biso   1.000  O
  O3       1.0000 0.40740  0.43510  0.27244  Biso   1.000  O
  C1       1.0000 0.32860  0.31220  0.15980  Biso   1.000  C
  C2       1.0000 0.32800  0.31230  0.19750  Biso   1.000  C
  H1       1.0000 0.29640  0.27050  0.21010  Biso   1.000  H
  C3       1.0000 0.27710  0.24440  0.13946  Biso   1.000  C
  O4       1.0000 0.79620  0.73990  0.10598  Biso   1.000  O
  O5       1.0000 0.71760  0.69540  0.15736  Biso   1.000  O
  O6       1.0000 0.90740  0.93510  0.27244  Biso   1.000  O
  C4       1.0000 0.82860  0.81220  0.15980  Biso   1.000  C
  C5       1.0000 0.82800  0.81230  0.19750  Biso   1.000  C
  H2       1.0000 0.79640  0.77050  0.21010  Biso   1.000  H
  C6       1.0000 0.77710  0.74440  0.13946  Biso   1.000  C
  O7       1.0000 0.45380  0.51010  0.10598  Biso   1.000  O
  O8       1.0000 0.53240  0.55460  0.15736  Biso   1.000  O
  O9       1.0000 0.34260  0.31490  0.27244  Biso   1.000  O
  C7       1.0000 0.42140  0.43780  0.15980  Biso   1.000  C
  C8       1.0000 0.42200  0.43770  0.19750  Biso   1.000  C
  H3       1.0000 0.45360  0.47950  0.21010  Biso   1.000  H
  C9       1.0000 0.47290  0.50560  0.13946  Biso   1.000  C
  O10      1.0000 0.95380  0.01010  0.10598  Biso   1.000  O
  O11      1.0000 0.03240  0.05460  0.15736  Biso   1.000  O
  O12      1.0000 0.84260  0.81490  0.27244  Biso   1.000  O
  C10      1.0000 0.92140  0.93780  0.15980  Biso   1.000  C
  C11      1.0000 0.92200  0.93770  0.19750  Biso   1.000  C
  H4       1.0000 0.95360  0.97950  0.21010  Biso   1.000  H
  C12      1.0000 0.97290  0.00560  0.13946  Biso   1.000  C
  O13      1.0000 0.45380  0.73990  0.14402  Biso   1.000  O
  O14      1.0000 0.53240  0.69540  0.09264  Biso   1.000  O
  O15      1.0000 0.34260  0.93510  0.97756  Biso   1.000  O
  C13      1.0000 0.42140  0.81220  0.09020  Biso   1.000  C
  C14      1.0000 0.42200  0.81230  0.05250  Biso   1.000  C
  H5       1.0000 0.45360  0.77050  0.03990  Biso   1.000  H
  C15      1.0000 0.47290  0.74440  0.11054  Biso   1.000  C
  O16      1.0000 0.95380  0.23990  0.14402  Biso   1.000  O
  O17      1.0000 0.03240  0.19540  0.09264  Biso   1.000  O
  O18      1.0000 0.84260  0.43510  0.97756  Biso   1.000  O
  C16      1.0000 0.92140  0.31220  0.09020  Biso   1.000  C
  C17      1.0000 0.92200  0.31230  0.05250  Biso   1.000  C
  H6       1.0000 0.95360  0.27050  0.03990  Biso   1.000  H
  C18      1.0000 0.97290  0.24440  0.11054  Biso   1.000  C
  O19      1.0000 0.29620  0.01010  0.14402  Biso   1.000  O
  O20      1.0000 0.21760  0.05460  0.09264  Biso   1.000  O
  O21      1.0000 0.40740  0.81490  0.97756  Biso   1.000  O
  C19      1.0000 0.32860  0.93780  0.09020  Biso   1.000  C
  C20      1.0000 0.32800  0.93770  0.05250  Biso   1.000  C
  H7       1.0000 0.29640  0.97950  0.03990  Biso   1.000  H
  C21      1.0000 0.27710  0.00560  0.11054  Biso   1.000  C
  O22      1.0000 0.79620  0.51010  0.14402  Biso   1.000  O
  O23      1.0000 0.71760  0.55460  0.09264  Biso   1.000  O
  O24      1.0000 0.90740  0.31490  0.97756  Biso   1.000  O
  C22      1.0000 0.82860  0.43780  0.09020  Biso   1.000  C
  C23      1.0000 0.82800  0.43770  0.05250  Biso   1.000  C
  H8       1.0000 0.79640  0.47950  0.03990  Biso   1.000  H
  C24      1.0000 0.77710  0.50560  0.11054  Biso   1.000  C
  Co1      1.0000 0.12500  0.12500  0.12500  Biso   1.000  Co
  Co2      1.0000 0.62500  0.62500  0.12500  Biso   1.000  Co
  C25      1.0000 0.37500  0.37500  0.21620  Biso   1.000  C
  C26      1.0000 0.37500  0.37500  0.14150  Biso   1.000  C
  H9       1.0000 0.37500  0.37500  0.11640  Biso   1.000  H
  C27      1.0000 0.37500  0.37500  0.25700  Biso   1.000  C
  C28      1.0000 0.87500  0.87500  0.21620  Biso   1.000  C
  C29      1.0000 0.87500  0.87500  0.14150  Biso   1.000  C
  H10      1.0000 0.87500  0.87500  0.11640  Biso   1.000  H
  C30      1.0000 0.87500  0.87500  0.25700  Biso   1.000  C
  C31      1.0000 0.37500  0.87500  0.03380  Biso   1.000  C
  C32      1.0000 0.37500  0.87500  0.10850  Biso   1.000  C
  H11      1.0000 0.37500  0.87500  0.13360  Biso   1.000  H
  C33      1.0000 0.37500  0.87500  0.99300  Biso   1.000  C
  C34      1.0000 0.87500  0.37500  0.03380  Biso   1.000  C
  C35      1.0000 0.87500  0.37500  0.10850  Biso   1.000  C
  H12      1.0000 0.87500  0.37500  0.13360  Biso   1.000  H
  C36      1.0000 0.87500  0.37500  0.99300  Biso   1.000  C
  O25      1.0000 0.29620  0.73990  0.60598  Biso   1.000  O
  O26      1.0000 0.21760  0.69540  0.65736  Biso   1.000  O
  O27      1.0000 0.40740  0.93510  0.77244  Biso   1.000  O
  C37      1.0000 0.32860  0.81220  0.65980  Biso   1.000  C
  C38      1.0000 0.32800  0.81230  0.69750  Biso   1.000  C
  H13      1.0000 0.29640  0.77050  0.71010  Biso   1.000  H
  C39      1.0000 0.27710  0.74440  0.63946  Biso   1.000  C
  O28      1.0000 0.79620  0.23990  0.60598  Biso   1.000  O
  O29      1.0000 0.71760  0.19540  0.65736  Biso   1.000  O
  O30      1.0000 0.90740  0.43510  0.77244  Biso   1.000  O
  C40      1.0000 0.82860  0.31220  0.65980  Biso   1.000  C
  C41      1.0000 0.82800  0.31230  0.69750  Biso   1.000  C
  H14      1.0000 0.79640  0.27050  0.71010  Biso   1.000  H
  C42      1.0000 0.77710  0.24440  0.63946  Biso   1.000  C
  O31      1.0000 0.45380  0.01010  0.60598  Biso   1.000  O
  O32      1.0000 0.53240  0.05460  0.65736  Biso   1.000  O
  O33      1.0000 0.34260  0.81490  0.77244  Biso   1.000  O
  C43      1.0000 0.42140  0.93780  0.65980  Biso   1.000  C
  C44      1.0000 0.42200  0.93770  0.69750  Biso   1.000  C
  H15      1.0000 0.45360  0.97950  0.71010  Biso   1.000  H
  C45      1.0000 0.47290  0.00560  0.63946  Biso   1.000  C
  O34      1.0000 0.95380  0.51010  0.60598  Biso   1.000  O
  O35      1.0000 0.03240  0.55460  0.65736  Biso   1.000  O
  O36      1.0000 0.84260  0.31490  0.77244  Biso   1.000  O
  C46      1.0000 0.92140  0.43780  0.65980  Biso   1.000  C
  C47      1.0000 0.92200  0.43770  0.69750  Biso   1.000  C
  H16      1.0000 0.95360  0.47950  0.71010  Biso   1.000  H
  C48      1.0000 0.97290  0.50560  0.63946  Biso   1.000  C
  O37      1.0000 0.45380  0.23990  0.64402  Biso   1.000  O
  O38      1.0000 0.53240  0.19540  0.59264  Biso   1.000  O
  O39      1.0000 0.34260  0.43510  0.47756  Biso   1.000  O
  C49      1.0000 0.42140  0.31220  0.59020  Biso   1.000  C
  C50      1.0000 0.42200  0.31230  0.55250  Biso   1.000  C
  H17      1.0000 0.45360  0.27050  0.53990  Biso   1.000  H
  C51      1.0000 0.47290  0.24440  0.61054  Biso   1.000  C
  O40      1.0000 0.95380  0.73990  0.64402  Biso   1.000  O
  O41      1.0000 0.03240  0.69540  0.59264  Biso   1.000  O
  O42      1.0000 0.84260  0.93510  0.47756  Biso   1.000  O
  C52      1.0000 0.92140  0.81220  0.59020  Biso   1.000  C
  C53      1.0000 0.92200  0.81230  0.55250  Biso   1.000  C
  H18      1.0000 0.95360  0.77050  0.53990  Biso   1.000  H
  C54      1.0000 0.97290  0.74440  0.61054  Biso   1.000  C
  O43      1.0000 0.29620  0.51010  0.64402  Biso   1.000  O
  O44      1.0000 0.21760  0.55460  0.59264  Biso   1.000  O
  O45      1.0000 0.40740  0.31490  0.47756  Biso   1.000  O
  C55      1.0000 0.32860  0.43780  0.59020  Biso   1.000  C
  C56      1.0000 0.32800  0.43770  0.55250  Biso   1.000  C
  H19      1.0000 0.29640  0.47950  0.53990  Biso   1.000  H
  C57      1.0000 0.27710  0.50560  0.61054  Biso   1.000  C
  O46      1.0000 0.79620  0.01010  0.64402  Biso   1.000  O
  O47      1.0000 0.71760  0.05460  0.59264  Biso   1.000  O
  O48      1.0000 0.90740  0.81490  0.47756  Biso   1.000  O
  C58      1.0000 0.82860  0.93780  0.59020  Biso   1.000  C
  C59      1.0000 0.82800  0.93770  0.55250  Biso   1.000  C
  H20      1.0000 0.79640  0.97950  0.53990  Biso   1.000  H
  C60      1.0000 0.77710  0.00560  0.61054  Biso   1.000  C
  Co3      1.0000 0.12500  0.62500  0.62500  Biso   1.000  Co
  Co4      1.0000 0.62500  0.12500  0.62500  Biso   1.000  Co
  C61      1.0000 0.37500  0.87500  0.71620  Biso   1.000  C
  C62      1.0000 0.37500  0.87500  0.64150  Biso   1.000  C
  H21      1.0000 0.37500  0.87500  0.61640  Biso   1.000  H
  C63      1.0000 0.37500  0.87500  0.75700  Biso   1.000  C
  C64      1.0000 0.87500  0.37500  0.71620  Biso   1.000  C
  C65      1.0000 0.87500  0.37500  0.64150  Biso   1.000  C
  H22      1.0000 0.87500  0.37500  0.61640  Biso   1.000  H
  C66      1.0000 0.87500  0.37500  0.75700  Biso   1.000  C
  C67      1.0000 0.37500  0.37500  0.53380  Biso   1.000  C
  C68      1.0000 0.37500  0.37500  0.60850  Biso   1.000  C
  H23      1.0000 0.37500  0.37500  0.63360  Biso   1.000  H
  C69      1.0000 0.37500  0.37500  0.49300  Biso   1.000  C
  C70      1.0000 0.87500  0.87500  0.53380  Biso   1.000  C
  C71      1.0000 0.87500  0.87500  0.60850  Biso   1.000  C
  H24      1.0000 0.87500  0.87500  0.63360  Biso   1.000  H
  C72      1.0000 0.87500  0.87500  0.49300  Biso   1.000  C
  O49      1.0000 0.70380  0.76010  0.89402  Biso   1.000  O
  O50      1.0000 0.78240  0.80460  0.84264  Biso   1.000  O
  O51      1.0000 0.59260  0.56490  0.72756  Biso   1.000  O
  C73      1.0000 0.67140  0.68780  0.84020  Biso   1.000  C
  C74      1.0000 0.67200  0.68770  0.80250  Biso   1.000  C
  H25      1.0000 0.70360  0.72950  0.78990  Biso   1.000  H
  C75      1.0000 0.72290  0.75560  0.86054  Biso   1.000  C
  O52      1.0000 0.20380  0.26010  0.89402  Biso   1.000  O
  O53      1.0000 0.28240  0.30460  0.84264  Biso   1.000  O
  O54      1.0000 0.09260  0.06490  0.72756  Biso   1.000  O
  C76      1.0000 0.17140  0.18780  0.84020  Biso   1.000  C
  C77      1.0000 0.17200  0.18770  0.80250  Biso   1.000  C
  H26      1.0000 0.20360  0.22950  0.78990  Biso   1.000  H
  C78      1.0000 0.22290  0.25560  0.86054  Biso   1.000  C
  O55      1.0000 0.54620  0.48990  0.89402  Biso   1.000  O
  O56      1.0000 0.46760  0.44540  0.84264  Biso   1.000  O
  O57      1.0000 0.65740  0.68510  0.72756  Biso   1.000  O
  C79      1.0000 0.57860  0.56220  0.84020  Biso   1.000  C
  C80      1.0000 0.57800  0.56230  0.80250  Biso   1.000  C
  H27      1.0000 0.54640  0.52050  0.78990  Biso   1.000  H
  C81      1.0000 0.52710  0.49440  0.86054  Biso   1.000  C
  O58      1.0000 0.04620  0.98990  0.89402  Biso   1.000  O
  O59      1.0000 0.96760  0.94540  0.84264  Biso   1.000  O
  O60      1.0000 0.15740  0.18510  0.72756  Biso   1.000  O
  C82      1.0000 0.07860  0.06220  0.84020  Biso   1.000  C
  C83      1.0000 0.07800  0.06230  0.80250  Biso   1.000  C
  H28      1.0000 0.04640  0.02050  0.78990  Biso   1.000  H
  C84      1.0000 0.02710  0.99440  0.86054  Biso   1.000  C
  O61      1.0000 0.54620  0.26010  0.85598  Biso   1.000  O
  O62      1.0000 0.46760  0.30460  0.90736  Biso   1.000  O
  O63      1.0000 0.65740  0.06490  0.02244  Biso   1.000  O
  C85      1.0000 0.57860  0.18780  0.90980  Biso   1.000  C
  C86      1.0000 0.57800  0.18770  0.94750  Biso   1.000  C
  H29      1.0000 0.54640  0.22950  0.96010  Biso   1.000  H
  C87      1.0000 0.52710  0.25560  0.88946  Biso   1.000  C
  O64      1.0000 0.04620  0.76010  0.85598  Biso   1.000  O
  O65      1.0000 0.96760  0.80460  0.90736  Biso   1.000  O
  O66      1.0000 0.15740  0.56490  0.02244  Biso   1.000  O
  C88      1.0000 0.07860  0.68780  0.90980  Biso   1.000  C
  C89      1.0000 0.07800  0.68770  0.94750  Biso   1.000  C
  H30      1.0000 0.04640  0.72950  0.96010  Biso   1.000  H
  C90      1.0000 0.02710  0.75560  0.88946  Biso   1.000  C
  O67      1.0000 0.70380  0.98990  0.85598  Biso   1.000  O
  O68      1.0000 0.78240  0.94540  0.90736  Biso   1.000  O
  O69      1.0000 0.59260  0.18510  0.02244  Biso   1.000  O
  C91      1.0000 0.67140  0.06220  0.90980  Biso   1.000  C
  C92      1.0000 0.67200  0.06230  0.94750  Biso   1.000  C
  H31      1.0000 0.70360  0.02050  0.96010  Biso   1.000  H
  C93      1.0000 0.72290  0.99440  0.88946  Biso   1.000  C
  O70      1.0000 0.20380  0.48990  0.85598  Biso   1.000  O
  O71      1.0000 0.28240  0.44540  0.90736  Biso   1.000  O
  O72      1.0000 0.09260  0.68510  0.02244  Biso   1.000  O
  C94      1.0000 0.17140  0.56220  0.90980  Biso   1.000  C
  C95      1.0000 0.17200  0.56230  0.94750  Biso   1.000  C
  H32      1.0000 0.20360  0.52050  0.96010  Biso   1.000  H
  C96      1.0000 0.22290  0.49440  0.88946  Biso   1.000  C
  Co5      1.0000 0.87500  0.87500  0.87500  Biso   1.000  Co
  Co6      1.0000 0.37500  0.37500  0.87500  Biso   1.000  Co
  C97      1.0000 0.62500  0.62500  0.78380  Biso   1.000  C
  C98      1.0000 0.62500  0.62500  0.85850  Biso   1.000  C
  H33      1.0000 0.62500  0.62500  0.88360  Biso   1.000  H
  C99      1.0000 0.62500  0.62500  0.74300  Biso   1.000  C
  C100     1.0000 0.12500  0.12500  0.78380  Biso   1.000  C
  C101     1.0000 0.12500  0.12500  0.85850  Biso   1.000  C
  H34      1.0000 0.12500  0.12500  0.88360  Biso   1.000  H
  C102     1.0000 0.12500  0.12500  0.74300  Biso   1.000  C
  C103     1.0000 0.62500  0.12500  0.96620  Biso   1.000  C
  C104     1.0000 0.62500  0.12500  0.89150  Biso   1.000  C
  H35      1.0000 0.62500  0.12500  0.86640  Biso   1.000  H
  C105     1.0000 0.62500  0.12500  0.00700  Biso   1.000  C
  C106     1.0000 0.12500  0.62500  0.96620  Biso   1.000  C
  C107     1.0000 0.12500  0.62500  0.89150  Biso   1.000  C
  H36      1.0000 0.12500  0.62500  0.86640  Biso   1.000  H
  C108     1.0000 0.12500  0.62500  0.00700  Biso   1.000  C
  O73      1.0000 0.70380  0.26010  0.39402  Biso   1.000  O
  O74      1.0000 0.78240  0.30460  0.34264  Biso   1.000  O
  O75      1.0000 0.59260  0.06490  0.22756  Biso   1.000  O
  C109     1.0000 0.67140  0.18780  0.34020  Biso   1.000  C
  C110     1.0000 0.67200  0.18770  0.30250  Biso   1.000  C
  H37      1.0000 0.70360  0.22950  0.28990  Biso   1.000  H
  C111     1.0000 0.72290  0.25560  0.36054  Biso   1.000  C
  O76      1.0000 0.20380  0.76010  0.39402  Biso   1.000  O
  O77      1.0000 0.28240  0.80460  0.34264  Biso   1.000  O
  O78      1.0000 0.09260  0.56490  0.22756  Biso   1.000  O
  C112     1.0000 0.17140  0.68780  0.34020  Biso   1.000  C
  C113     1.0000 0.17200  0.68770  0.30250  Biso   1.000  C
  H38      1.0000 0.20360  0.72950  0.28990  Biso   1.000  H
  C114     1.0000 0.22290  0.75560  0.36054  Biso   1.000  C
  O79      1.0000 0.54620  0.98990  0.39402  Biso   1.000  O
  O80      1.0000 0.46760  0.94540  0.34264  Biso   1.000  O
  O81      1.0000 0.65740  0.18510  0.22756  Biso   1.000  O
  C115     1.0000 0.57860  0.06220  0.34020  Biso   1.000  C
  C116     1.0000 0.57800  0.06230  0.30250  Biso   1.000  C
  H39      1.0000 0.54640  0.02050  0.28990  Biso   1.000  H
  C117     1.0000 0.52710  0.99440  0.36054  Biso   1.000  C
  O82      1.0000 0.04620  0.48990  0.39402  Biso   1.000  O
  O83      1.0000 0.96760  0.44540  0.34264  Biso   1.000  O
  O84      1.0000 0.15740  0.68510  0.22756  Biso   1.000  O
  C118     1.0000 0.07860  0.56220  0.34020  Biso   1.000  C
  C119     1.0000 0.07800  0.56230  0.30250  Biso   1.000  C
  H40      1.0000 0.04640  0.52050  0.28990  Biso   1.000  H
  C120     1.0000 0.02710  0.49440  0.36054  Biso   1.000  C
  O85      1.0000 0.54620  0.76010  0.35598  Biso   1.000  O
  O86      1.0000 0.46760  0.80460  0.40736  Biso   1.000  O
  O87      1.0000 0.65740  0.56490  0.52244  Biso   1.000  O
  C121     1.0000 0.57860  0.68780  0.40980  Biso   1.000  C
  C122     1.0000 0.57800  0.68770  0.44750  Biso   1.000  C
  H41      1.0000 0.54640  0.72950  0.46010  Biso   1.000  H
  C123     1.0000 0.52710  0.75560  0.38946  Biso   1.000  C
  O88      1.0000 0.04620  0.26010  0.35598  Biso   1.000  O
  O89      1.0000 0.96760  0.30460  0.40736  Biso   1.000  O
  O90      1.0000 0.15740  0.06490  0.52244  Biso   1.000  O
  C124     1.0000 0.07860  0.18780  0.40980  Biso   1.000  C
  C125     1.0000 0.07800  0.18770  0.44750  Biso   1.000  C
  H42      1.0000 0.04640  0.22950  0.46010  Biso   1.000  H
  C126     1.0000 0.02710  0.25560  0.38946  Biso   1.000  C
  O91      1.0000 0.70380  0.48990  0.35598  Biso   1.000  O
  O92      1.0000 0.78240  0.44540  0.40736  Biso   1.000  O
  O93      1.0000 0.59260  0.68510  0.52244  Biso   1.000  O
  C127     1.0000 0.67140  0.56220  0.40980  Biso   1.000  C
  C128     1.0000 0.67200  0.56230  0.44750  Biso   1.000  C
  H43      1.0000 0.70360  0.52050  0.46010  Biso   1.000  H
  C129     1.0000 0.72290  0.49440  0.38946  Biso   1.000  C
  O94      1.0000 0.20380  0.98990  0.35598  Biso   1.000  O
  O95      1.0000 0.28240  0.94540  0.40736  Biso   1.000  O
  O96      1.0000 0.09260  0.18510  0.52244  Biso   1.000  O
  C130     1.0000 0.17140  0.06220  0.40980  Biso   1.000  C
  C131     1.0000 0.17200  0.06230  0.44750  Biso   1.000  C
  H44      1.0000 0.20360  0.02050  0.46010  Biso   1.000  H
  C132     1.0000 0.22290  0.99440  0.38946  Biso   1.000  C
  Co7      1.0000 0.87500  0.37500  0.37500  Biso   1.000  Co
  Co8      1.0000 0.37500  0.87500  0.37500  Biso   1.000  Co
  C133     1.0000 0.62500  0.12500  0.28380  Biso   1.000  C
  C134     1.0000 0.62500  0.12500  0.35850  Biso   1.000  C
  H45      1.0000 0.62500  0.12500  0.38360  Biso   1.000  H
  C135     1.0000 0.62500  0.12500  0.24300  Biso   1.000  C
  C136     1.0000 0.12500  0.62500  0.28380  Biso   1.000  C
  C137     1.0000 0.12500  0.62500  0.35850  Biso   1.000  C
  H46      1.0000 0.12500  0.62500  0.38360  Biso   1.000  H
  C138     1.0000 0.12500  0.62500  0.24300  Biso   1.000  C
  C139     1.0000 0.62500  0.62500  0.46620  Biso   1.000  C
  C140     1.0000 0.62500  0.62500  0.39150  Biso   1.000  C
  H47      1.0000 0.62500  0.62500  0.36640  Biso   1.000  H
  C141     1.0000 0.62500  0.62500  0.50700  Biso   1.000  C
  C142     1.0000 0.12500  0.12500  0.46620  Biso   1.000  C
  C143     1.0000 0.12500  0.12500  0.39150  Biso   1.000  C
  H48      1.0000 0.12500  0.12500  0.36640  Biso   1.000  H
  C144     1.0000 0.12500  0.12500  0.50700  Biso   1.000  C
