data_image0
_cell_length_a       13.959
_cell_length_b       22.485
_cell_length_c       19.1568
_cell_angle_alpha    90
_cell_angle_beta     97.778
_cell_angle_gamma    90

_symmetry_space_group_name_H-M    "P 1"
_symmetry_int_tables_number       1

loop_
  _symmetry_equiv_pos_as_xyz
  'x, y, z'

loop_
  _atom_site_label
  _atom_site_occupancy
  _atom_site_fract_x
  _atom_site_fract_y
  _atom_site_fract_z
  _atom_site_thermal_displace_type
  _atom_site_B_iso_or_equiv
  _atom_site_type_symbol
  Cu1      1.0000 0.74088  0.73676  0.23209  Biso   1.000  Cu
  N1       1.0000 0.74570  0.82898  0.24910  Biso   1.000  N
  N2       1.0000 0.75720  0.14398  0.27970  Biso   1.000  N
  N3       1.0000 0.64650  0.74505  0.14318  Biso   1.000  N
  N4       1.0000 0.33510  0.77030  0.82118  Biso   1.000  N
  C1       1.0000 0.81500  0.86270  0.22680  Biso   1.000  C
  H1       1.0000 0.86070  0.84420  0.20290  Biso   1.000  H
  C2       1.0000 0.82180  0.92340  0.23740  Biso   1.000  C
  H2       1.0000 0.87200  0.94470  0.22190  Biso   1.000  H
  C3       1.0000 0.75380  0.95240  0.27120  Biso   1.000  C
  C4       1.0000 0.68330  0.91750  0.29510  Biso   1.000  C
  H3       1.0000 0.63640  0.93500  0.31860  Biso   1.000  H
  C5       1.0000 0.68220  0.85630  0.28410  Biso   1.000  C
  H4       1.0000 0.63530  0.83360  0.30180  Biso   1.000  H
  C6       1.0000 0.84000  0.11240  0.28430  Biso   1.000  C
  H5       1.0000 0.89830  0.13290  0.28780  Biso   1.000  H
  C7       1.0000 0.84230  0.05060  0.28400  Biso   1.000  C
  H6       1.0000 0.90120  0.03070  0.28760  Biso   1.000  H
  C8       1.0000 0.75580  0.01850  0.27820  Biso   1.000  C
  C9       1.0000 0.67110  0.05150  0.27590  Biso   1.000  C
  H7       1.0000 0.61190  0.03210  0.27360  Biso   1.000  H
  C10      1.0000 0.67450  0.11300  0.27690  Biso   1.000  C
  H8       1.0000 0.61680  0.13380  0.27560  Biso   1.000  H
  C11      1.0000 0.56680  0.77950  0.13910  Biso   1.000  C
  H9       1.0000 0.55280  0.79830  0.17980  Biso   1.000  H
  C12      1.0000 0.50570  0.78810  0.07750  Biso   1.000  C
  H10      1.0000 0.45150  0.81220  0.07700  Biso   1.000  H
  C13      1.0000 0.52480  0.76060  0.01600  Biso   1.000  C
  C14      1.0000 0.60570  0.72440  0.02040  Biso   1.000  C
  H11      1.0000 0.62050  0.70460  0.98060  Biso   1.000  H
  C15      1.0000 0.66480  0.71770  0.08480  Biso   1.000  C
  H12      1.0000 0.71890  0.69330  0.08700  Biso   1.000  H
  C16      1.0000 0.30240  0.77700  0.88290  Biso   1.000  C
  H13      1.0000 0.23640  0.78240  0.88300  Biso   1.000  H
  C17      1.0000 0.36150  0.77640  0.94650  Biso   1.000  C
  H14      1.0000 0.33530  0.78210  0.98820  Biso   1.000  H
  C18      1.0000 0.45950  0.76710  0.94850  Biso   1.000  C
  C19      1.0000 0.49370  0.76060  0.88460  Biso   1.000  C
  H15      1.0000 0.55950  0.75530  0.88350  Biso   1.000  H
  C20      1.0000 0.43060  0.76210  0.82230  Biso   1.000  C
  H16      1.0000 0.45520  0.75720  0.77990  Biso   1.000  H
  Cu2      1.0000 0.75912  0.23676  0.26791  Biso   1.000  Cu
  N5       1.0000 0.75430  0.32898  0.25090  Biso   1.000  N
  N6       1.0000 0.74280  0.64398  0.22030  Biso   1.000  N
  N7       1.0000 0.85350  0.24505  0.35682  Biso   1.000  N
  N8       1.0000 0.16490  0.27030  0.67882  Biso   1.000  N
  C21      1.0000 0.68500  0.36270  0.27320  Biso   1.000  C
  H17      1.0000 0.63930  0.34420  0.29710  Biso   1.000  H
  C22      1.0000 0.67820  0.42340  0.26260  Biso   1.000  C
  H18      1.0000 0.62800  0.44470  0.27810  Biso   1.000  H
  C23      1.0000 0.74620  0.45240  0.22880  Biso   1.000  C
  C24      1.0000 0.81670  0.41750  0.20490  Biso   1.000  C
  H19      1.0000 0.86360  0.43500  0.18140  Biso   1.000  H
  C25      1.0000 0.81780  0.35630  0.21590  Biso   1.000  C
  H20      1.0000 0.86470  0.33360  0.19820  Biso   1.000  H
  C26      1.0000 0.66000  0.61240  0.21570  Biso   1.000  C
  H21      1.0000 0.60170  0.63290  0.21220  Biso   1.000  H
  C27      1.0000 0.65770  0.55060  0.21600  Biso   1.000  C
  H22      1.0000 0.59880  0.53070  0.21240  Biso   1.000  H
  C28      1.0000 0.74420  0.51850  0.22180  Biso   1.000  C
  C29      1.0000 0.82890  0.55150  0.22410  Biso   1.000  C
  H23      1.0000 0.88810  0.53210  0.22640  Biso   1.000  H
  C30      1.0000 0.82550  0.61300  0.22310  Biso   1.000  C
  H24      1.0000 0.88320  0.63380  0.22440  Biso   1.000  H
  C31      1.0000 0.93320  0.27950  0.36090  Biso   1.000  C
  H25      1.0000 0.94720  0.29830  0.32020  Biso   1.000  H
  C32      1.0000 0.99430  0.28810  0.42250  Biso   1.000  C
  H26      1.0000 0.04850  0.31220  0.42300  Biso   1.000  H
  C33      1.0000 0.97520  0.26060  0.48400  Biso   1.000  C
  C34      1.0000 0.89430  0.22440  0.47960  Biso   1.000  C
  H27      1.0000 0.87950  0.20460  0.51940  Biso   1.000  H
  C35      1.0000 0.83520  0.21770  0.41520  Biso   1.000  C
  H28      1.0000 0.78110  0.19330  0.41300  Biso   1.000  H
  C36      1.0000 0.19760  0.27700  0.61710  Biso   1.000  C
  H29      1.0000 0.26360  0.28240  0.61700  Biso   1.000  H
  C37      1.0000 0.13850  0.27640  0.55350  Biso   1.000  C
  H30      1.0000 0.16470  0.28210  0.51180  Biso   1.000  H
  C38      1.0000 0.04050  0.26710  0.55150  Biso   1.000  C
  C39      1.0000 0.00630  0.26060  0.61540  Biso   1.000  C
  H31      1.0000 0.94050  0.25530  0.61650  Biso   1.000  H
  C40      1.0000 0.06940  0.26210  0.67770  Biso   1.000  C
  H32      1.0000 0.04480  0.25720  0.72010  Biso   1.000  H
  Cu3      1.0000 0.25912  0.26324  0.76791  Biso   1.000  Cu
  N9       1.0000 0.25430  0.17102  0.75090  Biso   1.000  N
  N10      1.0000 0.24280  0.85602  0.72030  Biso   1.000  N
  N11      1.0000 0.35350  0.25495  0.85682  Biso   1.000  N
  N12      1.0000 0.66490  0.22970  0.17882  Biso   1.000  N
  C41      1.0000 0.18500  0.13730  0.77320  Biso   1.000  C
  H33      1.0000 0.13930  0.15580  0.79710  Biso   1.000  H
  C42      1.0000 0.17820  0.07660  0.76260  Biso   1.000  C
  H34      1.0000 0.12800  0.05530  0.77810  Biso   1.000  H
  C43      1.0000 0.24620  0.04760  0.72880  Biso   1.000  C
  C44      1.0000 0.31670  0.08250  0.70490  Biso   1.000  C
  H35      1.0000 0.36360  0.06500  0.68140  Biso   1.000  H
  C45      1.0000 0.31780  0.14370  0.71590  Biso   1.000  C
  H36      1.0000 0.36470  0.16640  0.69820  Biso   1.000  H
  C46      1.0000 0.16000  0.88760  0.71570  Biso   1.000  C
  H37      1.0000 0.10170  0.86710  0.71220  Biso   1.000  H
  C47      1.0000 0.15770  0.94940  0.71600  Biso   1.000  C
  H38      1.0000 0.09880  0.96930  0.71240  Biso   1.000  H
  C48      1.0000 0.24420  0.98150  0.72180  Biso   1.000  C
  C49      1.0000 0.32890  0.94850  0.72410  Biso   1.000  C
  H39      1.0000 0.38810  0.96790  0.72640  Biso   1.000  H
  C50      1.0000 0.32550  0.88700  0.72310  Biso   1.000  C
  H40      1.0000 0.38320  0.86620  0.72440  Biso   1.000  H
  C51      1.0000 0.43320  0.22050  0.86090  Biso   1.000  C
  H41      1.0000 0.44720  0.20170  0.82020  Biso   1.000  H
  C52      1.0000 0.49430  0.21190  0.92250  Biso   1.000  C
  H42      1.0000 0.54850  0.18780  0.92300  Biso   1.000  H
  C53      1.0000 0.47520  0.23940  0.98400  Biso   1.000  C
  C54      1.0000 0.39430  0.27560  0.97960  Biso   1.000  C
  H43      1.0000 0.37950  0.29540  0.01940  Biso   1.000  H
  C55      1.0000 0.33520  0.28230  0.91520  Biso   1.000  C
  H44      1.0000 0.28110  0.30670  0.91300  Biso   1.000  H
  C56      1.0000 0.69760  0.22300  0.11710  Biso   1.000  C
  H45      1.0000 0.76360  0.21760  0.11700  Biso   1.000  H
  C57      1.0000 0.63850  0.22360  0.05350  Biso   1.000  C
  H46      1.0000 0.66470  0.21790  0.01180  Biso   1.000  H
  C58      1.0000 0.54050  0.23290  0.05150  Biso   1.000  C
  C59      1.0000 0.50630  0.23940  0.11540  Biso   1.000  C
  H47      1.0000 0.44050  0.24470  0.11650  Biso   1.000  H
  C60      1.0000 0.56940  0.23790  0.17770  Biso   1.000  C
  H48      1.0000 0.54480  0.24280  0.22010  Biso   1.000  H
  Cu4      1.0000 0.24088  0.76324  0.73209  Biso   1.000  Cu
  N13      1.0000 0.24570  0.67102  0.74910  Biso   1.000  N
  N14      1.0000 0.25720  0.35602  0.77970  Biso   1.000  N
  N15      1.0000 0.14650  0.75495  0.64318  Biso   1.000  N
  N16      1.0000 0.83510  0.72970  0.32118  Biso   1.000  N
  C61      1.0000 0.31500  0.63730  0.72680  Biso   1.000  C
  H49      1.0000 0.36070  0.65580  0.70290  Biso   1.000  H
  C62      1.0000 0.32180  0.57660  0.73740  Biso   1.000  C
  H50      1.0000 0.37200  0.55530  0.72190  Biso   1.000  H
  C63      1.0000 0.25380  0.54760  0.77120  Biso   1.000  C
  C64      1.0000 0.18330  0.58250  0.79510  Biso   1.000  C
  H51      1.0000 0.13640  0.56500  0.81860  Biso   1.000  H
  C65      1.0000 0.18220  0.64370  0.78410  Biso   1.000  C
  H52      1.0000 0.13530  0.66640  0.80180  Biso   1.000  H
  C66      1.0000 0.34000  0.38760  0.78430  Biso   1.000  C
  H53      1.0000 0.39830  0.36710  0.78780  Biso   1.000  H
  C67      1.0000 0.34230  0.44940  0.78400  Biso   1.000  C
  H54      1.0000 0.40120  0.46930  0.78760  Biso   1.000  H
  C68      1.0000 0.25580  0.48150  0.77820  Biso   1.000  C
  C69      1.0000 0.17110  0.44850  0.77590  Biso   1.000  C
  H55      1.0000 0.11190  0.46790  0.77360  Biso   1.000  H
  C70      1.0000 0.17450  0.38700  0.77690  Biso   1.000  C
  H56      1.0000 0.11680  0.36620  0.77560  Biso   1.000  H
  C71      1.0000 0.06680  0.72050  0.63910  Biso   1.000  C
  H57      1.0000 0.05280  0.70170  0.67980  Biso   1.000  H
  C72      1.0000 0.00570  0.71190  0.57750  Biso   1.000  C
  H58      1.0000 0.95150  0.68780  0.57700  Biso   1.000  H
  C73      1.0000 0.02480  0.73940  0.51600  Biso   1.000  C
  C74      1.0000 0.10570  0.77560  0.52040  Biso   1.000  C
  H59      1.0000 0.12050  0.79540  0.48060  Biso   1.000  H
  C75      1.0000 0.16480  0.78230  0.58480  Biso   1.000  C
  H60      1.0000 0.21890  0.80670  0.58700  Biso   1.000  H
  C76      1.0000 0.80240  0.72300  0.38290  Biso   1.000  C
  H61      1.0000 0.73640  0.71760  0.38300  Biso   1.000  H
  C77      1.0000 0.86150  0.72360  0.44650  Biso   1.000  C
  H62      1.0000 0.83530  0.71790  0.48820  Biso   1.000  H
  C78      1.0000 0.95950  0.73290  0.44850  Biso   1.000  C
  C79      1.0000 0.99370  0.73940  0.38460  Biso   1.000  C
  H63      1.0000 0.05950  0.74470  0.38350  Biso   1.000  H
  C80      1.0000 0.93060  0.73790  0.32230  Biso   1.000  C
  H64      1.0000 0.95520  0.74280  0.27990  Biso   1.000  H
