data_image0
_cell_length_a       10.5847
_cell_length_b       19.0579
_cell_length_c       23.1327
_cell_angle_alpha    90
_cell_angle_beta     102.038
_cell_angle_gamma    90

_symmetry_space_group_name_H-M    "P 1"
_symmetry_int_tables_number       1

loop_
  _symmetry_equiv_pos_as_xyz
  'x, y, z'

loop_
  _atom_site_label
  _atom_site_occupancy
  _atom_site_fract_x
  _atom_site_fract_y
  _atom_site_fract_z
  _atom_site_thermal_displace_type
  _atom_site_B_iso_or_equiv
  _atom_site_type_symbol
  Ag1      1.0000 0.38349  0.92526  0.12783  Biso   1.000  Ag
  Ag2      1.0000 0.13077  0.08301  0.37686  Biso   1.000  Ag
  Ag3      1.0000 0.40602  0.16018  0.33581  Biso   1.000  Ag
  C1       1.0000 0.33720  0.04340  0.22750  Biso   1.000  C
  C2       1.0000 0.44080  0.08270  0.20670  Biso   1.000  C
  H1       1.0000 0.49860  0.04980  0.19340  Biso   1.000  H
  H2       1.0000 0.48910  0.11070  0.23890  Biso   1.000  H
  H3       1.0000 0.40240  0.11320  0.17420  Biso   1.000  H
  C3       1.0000 0.15290  0.97740  0.26390  Biso   1.000  C
  C4       1.0000 0.04680  0.93980  0.28420  Biso   1.000  C
  H4       1.0000 0.98260  0.92470  0.25020  Biso   1.000  H
  H5       1.0000 0.00700  0.97100  0.30830  Biso   1.000  H
  H6       1.0000 0.08170  0.89910  0.30730  Biso   1.000  H
  C5       1.0000 0.09190  0.96700  0.48200  Biso   1.000  C
  C6       1.0000 0.19400  0.92790  0.46140  Biso   1.000  C
  H7       1.0000 0.19460  0.87960  0.47470  Biso   1.000  H
  H8       1.0000 0.27710  0.94930  0.47730  Biso   1.000  H
  H9       1.0000 0.17770  0.92910  0.41850  Biso   1.000  H
  C7       1.0000 0.40590  0.03300  0.01780  Biso   1.000  C
  C8       1.0000 0.30330  0.07080  0.04000  Biso   1.000  C
  H10      1.0000 0.22930  0.07760  0.00780  Biso   1.000  H
  H11      1.0000 0.27760  0.04340  0.07100  Biso   1.000  H
  H12      1.0000 0.33570  0.11600  0.05560  Biso   1.000  H
  N1       1.0000 0.29120  0.98350  0.20050  Biso   1.000  N
  N2       1.0000 0.19530  0.95060  0.21780  Biso   1.000  N
  N3       1.0000 0.29530  0.06950  0.27480  Biso   1.000  N
  N4       1.0000 0.20220  0.03510  0.29340  Biso   1.000  N
  N5       1.0000 0.04090  0.02470  0.45210  Biso   1.000  N
  N6       1.0000 0.05160  0.94160  0.52980  Biso   1.000  N
  N7       1.0000 0.43460  0.05280  0.96650  Biso   1.000  N
  N8       1.0000 0.47050  0.98050  0.05170  Biso   1.000  N
  Ag4      1.0000 0.61651  0.07474  0.87217  Biso   1.000  Ag
  Ag5      1.0000 0.86923  0.91699  0.62314  Biso   1.000  Ag
  Ag6      1.0000 0.59398  0.83982  0.66419  Biso   1.000  Ag
  C9       1.0000 0.66280  0.95660  0.77250  Biso   1.000  C
  C10      1.0000 0.55920  0.91730  0.79330  Biso   1.000  C
  H13      1.0000 0.50140  0.95020  0.80660  Biso   1.000  H
  H14      1.0000 0.51090  0.88930  0.76110  Biso   1.000  H
  H15      1.0000 0.59760  0.88680  0.82580  Biso   1.000  H
  C11      1.0000 0.84710  0.02260  0.73610  Biso   1.000  C
  C12      1.0000 0.95320  0.06020  0.71580  Biso   1.000  C
  H16      1.0000 0.01740  0.07530  0.74980  Biso   1.000  H
  H17      1.0000 0.99300  0.02900  0.69170  Biso   1.000  H
  H18      1.0000 0.91830  0.10090  0.69270  Biso   1.000  H
  C13      1.0000 0.90810  0.03300  0.51800  Biso   1.000  C
  C14      1.0000 0.80600  0.07210  0.53860  Biso   1.000  C
  H19      1.0000 0.80540  0.12040  0.52530  Biso   1.000  H
  H20      1.0000 0.72290  0.05070  0.52270  Biso   1.000  H
  H21      1.0000 0.82230  0.07090  0.58150  Biso   1.000  H
  C15      1.0000 0.59410  0.96700  0.98220  Biso   1.000  C
  C16      1.0000 0.69670  0.92920  0.96000  Biso   1.000  C
  H22      1.0000 0.77070  0.92240  0.99220  Biso   1.000  H
  H23      1.0000 0.72240  0.95660  0.92900  Biso   1.000  H
  H24      1.0000 0.66430  0.88400  0.94440  Biso   1.000  H
  N9       1.0000 0.70880  0.01650  0.79950  Biso   1.000  N
  N10      1.0000 0.80470  0.04940  0.78220  Biso   1.000  N
  N11      1.0000 0.70470  0.93050  0.72520  Biso   1.000  N
  N12      1.0000 0.79780  0.96490  0.70660  Biso   1.000  N
  N13      1.0000 0.95910  0.97530  0.54790  Biso   1.000  N
  N14      1.0000 0.94840  0.05840  0.47020  Biso   1.000  N
  N15      1.0000 0.56540  0.94720  0.03350  Biso   1.000  N
  N16      1.0000 0.52950  0.01950  0.94830  Biso   1.000  N
  Ag7      1.0000 0.61651  0.42526  0.37217  Biso   1.000  Ag
  Ag8      1.0000 0.86923  0.58301  0.12314  Biso   1.000  Ag
  Ag9      1.0000 0.59398  0.66018  0.16419  Biso   1.000  Ag
  C17      1.0000 0.66280  0.54340  0.27250  Biso   1.000  C
  C18      1.0000 0.55920  0.58270  0.29330  Biso   1.000  C
  H25      1.0000 0.50140  0.54980  0.30660  Biso   1.000  H
  H26      1.0000 0.51090  0.61070  0.26110  Biso   1.000  H
  H27      1.0000 0.59760  0.61320  0.32580  Biso   1.000  H
  C19      1.0000 0.84710  0.47740  0.23610  Biso   1.000  C
  C20      1.0000 0.95320  0.43980  0.21580  Biso   1.000  C
  H28      1.0000 0.01740  0.42470  0.24980  Biso   1.000  H
  H29      1.0000 0.99300  0.47100  0.19170  Biso   1.000  H
  H30      1.0000 0.91830  0.39910  0.19270  Biso   1.000  H
  C21      1.0000 0.90810  0.46700  0.01800  Biso   1.000  C
  C22      1.0000 0.80600  0.42790  0.03860  Biso   1.000  C
  H31      1.0000 0.80540  0.37960  0.02530  Biso   1.000  H
  H32      1.0000 0.72290  0.44930  0.02270  Biso   1.000  H
  H33      1.0000 0.82230  0.42910  0.08150  Biso   1.000  H
  C23      1.0000 0.59410  0.53300  0.48220  Biso   1.000  C
  C24      1.0000 0.69670  0.57080  0.46000  Biso   1.000  C
  H34      1.0000 0.77070  0.57760  0.49220  Biso   1.000  H
  H35      1.0000 0.72240  0.54340  0.42900  Biso   1.000  H
  H36      1.0000 0.66430  0.61600  0.44440  Biso   1.000  H
  N17      1.0000 0.70880  0.48350  0.29950  Biso   1.000  N
  N18      1.0000 0.80470  0.45060  0.28220  Biso   1.000  N
  N19      1.0000 0.70470  0.56950  0.22520  Biso   1.000  N
  N20      1.0000 0.79780  0.53510  0.20660  Biso   1.000  N
  N21      1.0000 0.95910  0.52470  0.04790  Biso   1.000  N
  N22      1.0000 0.94840  0.44160  0.97020  Biso   1.000  N
  N23      1.0000 0.56540  0.55280  0.53350  Biso   1.000  N
  N24      1.0000 0.52950  0.48050  0.44830  Biso   1.000  N
  Ag10     1.0000 0.38349  0.57474  0.62783  Biso   1.000  Ag
  Ag11     1.0000 0.13077  0.41699  0.87686  Biso   1.000  Ag
  Ag12     1.0000 0.40602  0.33982  0.83581  Biso   1.000  Ag
  C25      1.0000 0.33720  0.45660  0.72750  Biso   1.000  C
  C26      1.0000 0.44080  0.41730  0.70670  Biso   1.000  C
  H37      1.0000 0.49860  0.45020  0.69340  Biso   1.000  H
  H38      1.0000 0.48910  0.38930  0.73890  Biso   1.000  H
  H39      1.0000 0.40240  0.38680  0.67420  Biso   1.000  H
  C27      1.0000 0.15290  0.52260  0.76390  Biso   1.000  C
  C28      1.0000 0.04680  0.56020  0.78420  Biso   1.000  C
  H40      1.0000 0.98260  0.57530  0.75020  Biso   1.000  H
  H41      1.0000 0.00700  0.52900  0.80830  Biso   1.000  H
  H42      1.0000 0.08170  0.60090  0.80730  Biso   1.000  H
  C29      1.0000 0.09190  0.53300  0.98200  Biso   1.000  C
  C30      1.0000 0.19400  0.57210  0.96140  Biso   1.000  C
  H43      1.0000 0.19460  0.62040  0.97470  Biso   1.000  H
  H44      1.0000 0.27710  0.55070  0.97730  Biso   1.000  H
  H45      1.0000 0.17770  0.57090  0.91850  Biso   1.000  H
  C31      1.0000 0.40590  0.46700  0.51780  Biso   1.000  C
  C32      1.0000 0.30330  0.42920  0.54000  Biso   1.000  C
  H46      1.0000 0.22930  0.42240  0.50780  Biso   1.000  H
  H47      1.0000 0.27760  0.45660  0.57100  Biso   1.000  H
  H48      1.0000 0.33570  0.38400  0.55560  Biso   1.000  H
  N25      1.0000 0.29120  0.51650  0.70050  Biso   1.000  N
  N26      1.0000 0.19530  0.54940  0.71780  Biso   1.000  N
  N27      1.0000 0.29530  0.43050  0.77480  Biso   1.000  N
  N28      1.0000 0.20220  0.46490  0.79340  Biso   1.000  N
  N29      1.0000 0.04090  0.47530  0.95210  Biso   1.000  N
  N30      1.0000 0.05160  0.55840  0.02980  Biso   1.000  N
  N31      1.0000 0.43460  0.44720  0.46650  Biso   1.000  N
  N32      1.0000 0.47050  0.51950  0.55170  Biso   1.000  N
