data_image0
_cell_length_a       8.5212
_cell_length_b       9.0321
_cell_length_c       11.3497
_cell_angle_alpha    90
_cell_angle_beta     90
_cell_angle_gamma    90

_symmetry_space_group_name_H-M    "P 1"
_symmetry_int_tables_number       1

loop_
  _symmetry_equiv_pos_as_xyz
  'x, y, z'

loop_
  _atom_site_label
  _atom_site_occupancy
  _atom_site_fract_x
  _atom_site_fract_y
  _atom_site_fract_z
  _atom_site_thermal_displace_type
  _atom_site_B_iso_or_equiv
  _atom_site_type_symbol
  Cu1      1.0000 0.99625  0.00076  0.49850  Biso   1.000  Cu
  O1       1.0000 0.99980  0.11000  0.65140  Biso   1.000  O
  O2       1.0000 0.01200  0.10850  0.84500  Biso   1.000  O
  C1       1.0000 0.00730  0.04460  0.74850  Biso   1.000  C
  H1       1.0000 0.00950  0.94170  0.74820  Biso   1.000  H
  Cu2      1.0000 0.00375  0.99924  0.99850  Biso   1.000  Cu
  O3       1.0000 0.00020  0.89000  0.15140  Biso   1.000  O
  O4       1.0000 0.98800  0.89150  0.34500  Biso   1.000  O
  C2       1.0000 0.99270  0.95540  0.24850  Biso   1.000  C
  H2       1.0000 0.99050  0.05830  0.24820  Biso   1.000  H
  Cu3      1.0000 0.49625  0.49924  0.49850  Biso   1.000  Cu
  O5       1.0000 0.49980  0.39000  0.65140  Biso   1.000  O
  O6       1.0000 0.51200  0.39150  0.84500  Biso   1.000  O
  C3       1.0000 0.50730  0.45540  0.74850  Biso   1.000  C
  H3       1.0000 0.50950  0.55830  0.74820  Biso   1.000  H
  Cu4      1.0000 0.50375  0.50076  0.99850  Biso   1.000  Cu
  O7       1.0000 0.50020  0.61000  0.15140  Biso   1.000  O
  O8       1.0000 0.48800  0.60850  0.34500  Biso   1.000  O
  C4       1.0000 0.49270  0.54460  0.24850  Biso   1.000  C
  H4       1.0000 0.49050  0.44170  0.24820  Biso   1.000  H
