data_image0
_cell_length_a       15.65
_cell_length_b       15.65
_cell_length_c       8.348
_cell_angle_alpha    90
_cell_angle_beta     90
_cell_angle_gamma    90

_symmetry_space_group_name_H-M    "P 1"
_symmetry_int_tables_number       1

loop_
  _symmetry_equiv_pos_as_xyz
  'x, y, z'

loop_
  _atom_site_label
  _atom_site_occupancy
  _atom_site_fract_x
  _atom_site_fract_y
  _atom_site_fract_z
  _atom_site_thermal_displace_type
  _atom_site_B_iso_or_equiv
  _atom_site_type_symbol
  Cu1      1.0000 0.50000  0.50000  0.00000  Biso   1.000  Cu
  C1       1.0000 0.31380  0.31380  0.86900  Biso   1.000  C
  H1       1.0000 0.29210  0.29210  0.77320  Biso   1.000  H
  C2       1.0000 0.37630  0.37630  0.86640  Biso   1.000  C
  H2       1.0000 0.39600  0.39600  0.76810  Biso   1.000  H
  C3       1.0000 0.11240  0.11240  0.93370  Biso   1.000  C
  C4       1.0000 0.17900  0.17900  0.90500  Biso   1.000  C
  H3       1.0000 0.19320  0.19320  0.80010  Biso   1.000  H
  O1       1.0000 0.07810  0.07810  0.81410  Biso   1.000  O
  O2       1.0000 0.09330  0.09330  0.07660  Biso   1.000  O
  C5       1.0000 0.31850  0.31850  0.15300  Biso   1.000  C
  H4       1.0000 0.30010  0.30010  0.25260  Biso   1.000  H
  C6       1.0000 0.38080  0.38080  0.14060  Biso   1.000  C
  H5       1.0000 0.40370  0.40370  0.23400  Biso   1.000  H
  C7       1.0000 0.28370  0.28370  0.01400  Biso   1.000  C
  C8       1.0000 0.21740  0.21740  0.02300  Biso   1.000  C
  H6       1.0000 0.20090  0.20090  0.12540  Biso   1.000  H
  C9       1.0000 0.68620  0.68620  0.86900  Biso   1.000  C
  H7       1.0000 0.70790  0.70790  0.77320  Biso   1.000  H
  C10      1.0000 0.62370  0.62370  0.86640  Biso   1.000  C
  H8       1.0000 0.60400  0.60400  0.76810  Biso   1.000  H
  C11      1.0000 0.88760  0.88760  0.93370  Biso   1.000  C
  C12      1.0000 0.82100  0.82100  0.90500  Biso   1.000  C
  H9       1.0000 0.80680  0.80680  0.80010  Biso   1.000  H
  O3       1.0000 0.92190  0.92190  0.81410  Biso   1.000  O
  O4       1.0000 0.90670  0.90670  0.07660  Biso   1.000  O
  C13      1.0000 0.68150  0.68150  0.15300  Biso   1.000  C
  H10      1.0000 0.69990  0.69990  0.25260  Biso   1.000  H
  C14      1.0000 0.61920  0.61920  0.14060  Biso   1.000  C
  H11      1.0000 0.59630  0.59630  0.23400  Biso   1.000  H
  C15      1.0000 0.71630  0.71630  0.01400  Biso   1.000  C
  C16      1.0000 0.78260  0.78260  0.02300  Biso   1.000  C
  H12      1.0000 0.79910  0.79910  0.12540  Biso   1.000  H
  C17      1.0000 0.68620  0.31380  0.86900  Biso   1.000  C
  H13      1.0000 0.70790  0.29210  0.77320  Biso   1.000  H
  C18      1.0000 0.62370  0.37630  0.86640  Biso   1.000  C
  H14      1.0000 0.60400  0.39600  0.76810  Biso   1.000  H
  C19      1.0000 0.88760  0.11240  0.93370  Biso   1.000  C
  C20      1.0000 0.82100  0.17900  0.90500  Biso   1.000  C
  H15      1.0000 0.80680  0.19320  0.80010  Biso   1.000  H
  O5       1.0000 0.92190  0.07810  0.81410  Biso   1.000  O
  O6       1.0000 0.90670  0.09330  0.07660  Biso   1.000  O
  C21      1.0000 0.68150  0.31850  0.15300  Biso   1.000  C
  H16      1.0000 0.69990  0.30010  0.25260  Biso   1.000  H
  C22      1.0000 0.61920  0.38080  0.14060  Biso   1.000  C
  H17      1.0000 0.59630  0.40370  0.23400  Biso   1.000  H
  C23      1.0000 0.71630  0.28370  0.01400  Biso   1.000  C
  C24      1.0000 0.78260  0.21740  0.02300  Biso   1.000  C
  H18      1.0000 0.79910  0.20090  0.12540  Biso   1.000  H
  C25      1.0000 0.31380  0.68620  0.86900  Biso   1.000  C
  H19      1.0000 0.29210  0.70790  0.77320  Biso   1.000  H
  C26      1.0000 0.37630  0.62370  0.86640  Biso   1.000  C
  H20      1.0000 0.39600  0.60400  0.76810  Biso   1.000  H
  C27      1.0000 0.11240  0.88760  0.93370  Biso   1.000  C
  C28      1.0000 0.17900  0.82100  0.90500  Biso   1.000  C
  H21      1.0000 0.19320  0.80680  0.80010  Biso   1.000  H
  O7       1.0000 0.07810  0.92190  0.81410  Biso   1.000  O
  O8       1.0000 0.09330  0.90670  0.07660  Biso   1.000  O
  C29      1.0000 0.31850  0.68150  0.15300  Biso   1.000  C
  H22      1.0000 0.30010  0.69990  0.25260  Biso   1.000  H
  C30      1.0000 0.38080  0.61920  0.14060  Biso   1.000  C
  H23      1.0000 0.40370  0.59630  0.23400  Biso   1.000  H
  C31      1.0000 0.28370  0.71630  0.01400  Biso   1.000  C
  C32      1.0000 0.21740  0.78260  0.02300  Biso   1.000  C
  H24      1.0000 0.20090  0.79910  0.12540  Biso   1.000  H
  C33      1.0000 0.68620  0.31380  0.13100  Biso   1.000  C
  H25      1.0000 0.70790  0.29210  0.22680  Biso   1.000  H
  C34      1.0000 0.62370  0.37630  0.13360  Biso   1.000  C
  H26      1.0000 0.60400  0.39600  0.23190  Biso   1.000  H
  C35      1.0000 0.88760  0.11240  0.06630  Biso   1.000  C
  C36      1.0000 0.82100  0.17900  0.09500  Biso   1.000  C
  H27      1.0000 0.80680  0.19320  0.19990  Biso   1.000  H
  O9       1.0000 0.92190  0.07810  0.18590  Biso   1.000  O
  O10      1.0000 0.90670  0.09330  0.92340  Biso   1.000  O
  C37      1.0000 0.68150  0.31850  0.84700  Biso   1.000  C
  H28      1.0000 0.69990  0.30010  0.74740  Biso   1.000  H
  C38      1.0000 0.61920  0.38080  0.85940  Biso   1.000  C
  H29      1.0000 0.59630  0.40370  0.76600  Biso   1.000  H
  C39      1.0000 0.71630  0.28370  0.98600  Biso   1.000  C
  C40      1.0000 0.78260  0.21740  0.97700  Biso   1.000  C
  H30      1.0000 0.79910  0.20090  0.87460  Biso   1.000  H
  C41      1.0000 0.31380  0.68620  0.13100  Biso   1.000  C
  H31      1.0000 0.29210  0.70790  0.22680  Biso   1.000  H
  C42      1.0000 0.37630  0.62370  0.13360  Biso   1.000  C
  H32      1.0000 0.39600  0.60400  0.23190  Biso   1.000  H
  C43      1.0000 0.11240  0.88760  0.06630  Biso   1.000  C
  C44      1.0000 0.17900  0.82100  0.09500  Biso   1.000  C
  H33      1.0000 0.19320  0.80680  0.19990  Biso   1.000  H
  O11      1.0000 0.07810  0.92190  0.18590  Biso   1.000  O
  O12      1.0000 0.09330  0.90670  0.92340  Biso   1.000  O
  C45      1.0000 0.31850  0.68150  0.84700  Biso   1.000  C
  H34      1.0000 0.30010  0.69990  0.74740  Biso   1.000  H
  C46      1.0000 0.38080  0.61920  0.85940  Biso   1.000  C
  H35      1.0000 0.40370  0.59630  0.76600  Biso   1.000  H
  C47      1.0000 0.28370  0.71630  0.98600  Biso   1.000  C
  C48      1.0000 0.21740  0.78260  0.97700  Biso   1.000  C
  H36      1.0000 0.20090  0.79910  0.87460  Biso   1.000  H
  C49      1.0000 0.31380  0.31380  0.13100  Biso   1.000  C
  H37      1.0000 0.29210  0.29210  0.22680  Biso   1.000  H
  C50      1.0000 0.37630  0.37630  0.13360  Biso   1.000  C
  H38      1.0000 0.39600  0.39600  0.23190  Biso   1.000  H
  C51      1.0000 0.11240  0.11240  0.06630  Biso   1.000  C
  C52      1.0000 0.17900  0.17900  0.09500  Biso   1.000  C
  H39      1.0000 0.19320  0.19320  0.19990  Biso   1.000  H
  O13      1.0000 0.07810  0.07810  0.18590  Biso   1.000  O
  O14      1.0000 0.09330  0.09330  0.92340  Biso   1.000  O
  C53      1.0000 0.31850  0.31850  0.84700  Biso   1.000  C
  H40      1.0000 0.30010  0.30010  0.74740  Biso   1.000  H
  C54      1.0000 0.38080  0.38080  0.85940  Biso   1.000  C
  H41      1.0000 0.40370  0.40370  0.76600  Biso   1.000  H
  C55      1.0000 0.28370  0.28370  0.98600  Biso   1.000  C
  C56      1.0000 0.21740  0.21740  0.97700  Biso   1.000  C
  H42      1.0000 0.20090  0.20090  0.87460  Biso   1.000  H
  C57      1.0000 0.68620  0.68620  0.13100  Biso   1.000  C
  H43      1.0000 0.70790  0.70790  0.22680  Biso   1.000  H
  C58      1.0000 0.62370  0.62370  0.13360  Biso   1.000  C
  H44      1.0000 0.60400  0.60400  0.23190  Biso   1.000  H
  C59      1.0000 0.88760  0.88760  0.06630  Biso   1.000  C
  C60      1.0000 0.82100  0.82100  0.09500  Biso   1.000  C
  H45      1.0000 0.80680  0.80680  0.19990  Biso   1.000  H
  O15      1.0000 0.92190  0.92190  0.18590  Biso   1.000  O
  O16      1.0000 0.90670  0.90670  0.92340  Biso   1.000  O
  C61      1.0000 0.68150  0.68150  0.84700  Biso   1.000  C
  H46      1.0000 0.69990  0.69990  0.74740  Biso   1.000  H
  C62      1.0000 0.61920  0.61920  0.85940  Biso   1.000  C
  H47      1.0000 0.59630  0.59630  0.76600  Biso   1.000  H
  C63      1.0000 0.71630  0.71630  0.98600  Biso   1.000  C
  C64      1.0000 0.78260  0.78260  0.97700  Biso   1.000  C
  H48      1.0000 0.79910  0.79910  0.87460  Biso   1.000  H
  N1       1.0000 0.40910  0.40910  0.00000  Biso   1.000  N
  N2       1.0000 0.59090  0.59090  0.00000  Biso   1.000  N
  N3       1.0000 0.59090  0.40910  0.00000  Biso   1.000  N
  N4       1.0000 0.40910  0.59090  0.00000  Biso   1.000  N
  Cu2      1.0000 0.01790  0.00000  0.15050  Biso   1.000  Cu
  Cu3      1.0000 0.98210  0.00000  0.15050  Biso   1.000  Cu
  Cu4      1.0000 0.00000  0.01790  0.15050  Biso   1.000  Cu
  Cu5      1.0000 0.00000  0.98210  0.15050  Biso   1.000  Cu
  Cu6      1.0000 0.98210  0.00000  0.84950  Biso   1.000  Cu
  Cu7      1.0000 0.01790  0.00000  0.84950  Biso   1.000  Cu
  Cu8      1.0000 0.00000  0.01790  0.84950  Biso   1.000  Cu
  Cu9      1.0000 0.00000  0.98210  0.84950  Biso   1.000  Cu
