data_image0
_cell_length_a       26.189
_cell_length_b       26.223
_cell_length_c       21.117
_cell_angle_alpha    90
_cell_angle_beta     127.232
_cell_angle_gamma    90

_symmetry_space_group_name_H-M    "P 1"
_symmetry_int_tables_number       1

loop_
  _symmetry_equiv_pos_as_xyz
  'x, y, z'

loop_
  _atom_site_label
  _atom_site_occupancy
  _atom_site_fract_x
  _atom_site_fract_y
  _atom_site_fract_z
  _atom_site_thermal_displace_type
  _atom_site_B_iso_or_equiv
  _atom_site_type_symbol
  Cu1      1.0000 0.53706  0.28239  0.32825  Biso   1.000  Cu
  O1       1.0000 0.53300  0.20715  0.31950  Biso   1.000  O
  O2       1.0000 0.39100  0.28300  0.17620  Biso   1.000  O
  O3       1.0000 0.45530  0.28150  0.31140  Biso   1.000  O
  O4       1.0000 0.53180  0.35440  0.32010  Biso   1.000  O
  N1       1.0000 0.07310  0.28020  0.24330  Biso   1.000  N
  C1       1.0000 0.34480  0.28320  0.24340  Biso   1.000  C
  C2       1.0000 0.28280  0.28480  0.17070  Biso   1.000  C
  H1       1.0000 0.27740  0.28400  0.12200  Biso   1.000  H
  C3       1.0000 0.35010  0.27490  0.31110  Biso   1.000  C
  H2       1.0000 0.39070  0.26570  0.35850  Biso   1.000  H
  C4       1.0000 0.23610  0.28320  0.24110  Biso   1.000  C
  C5       1.0000 0.18100  0.28350  0.24400  Biso   1.000  C
  C6       1.0000 0.46550  0.51580  0.17680  Biso   1.000  C
  H3       1.0000 0.44280  0.53430  0.12820  Biso   1.000  H
  C7       1.0000 0.40380  0.28370  0.24520  Biso   1.000  C
  C8       1.0000 0.53560  0.04930  0.32010  Biso   1.000  C
  H4       1.0000 0.56390  0.03270  0.36990  Biso   1.000  H
  C9       1.0000 0.46480  0.46300  0.17640  Biso   1.000  C
  H5       1.0000 0.44130  0.44450  0.12780  Biso   1.000  H
  C10      1.0000 0.29870  0.27940  0.31320  Biso   1.000  C
  H6       1.0000 0.30530  0.27990  0.36260  Biso   1.000  H
  C11      1.0000 0.55630  0.93680  0.30400  Biso   1.000  C
  H7       1.0000 0.59590  0.95370  0.34120  Biso   1.000  H
  C12      1.0000 0.48030  0.62620  0.18160  Biso   1.000  C
  H8       1.0000 0.46230  0.60890  0.13270  Biso   1.000  H
  C13      1.0000 0.22980  0.28750  0.17000  Biso   1.000  C
  H9       1.0000 0.18840  0.29240  0.12100  Biso   1.000  H
  C14      1.0000 0.12520  0.30810  0.18510  Biso   1.000  C
  H10      1.0000 0.12210  0.32600  0.14380  Biso   1.000  H
  C15      1.0000 0.52890  0.10170  0.31560  Biso   1.000  C
  H11      1.0000 0.54670  0.11860  0.36460  Biso   1.000  H
  C16      1.0000 0.55340  0.88340  0.30250  Biso   1.000  C
  H12      1.0000 0.59160  0.86520  0.34080  Biso   1.000  H
  C17      1.0000 0.07320  0.30610  0.18760  Biso   1.000  C
  H13      1.0000 0.03530  0.32400  0.14780  Biso   1.000  H
  C18      1.0000 0.18090  0.25190  0.29820  Biso   1.000  C
  H14      1.0000 0.21650  0.23060  0.33480  Biso   1.000  H
  C19      1.0000 0.12580  0.25310  0.29570  Biso   1.000  C
  H15      1.0000 0.12620  0.23340  0.33370  Biso   1.000  H
  C20      1.0000 0.48780  0.67910  0.18750  Biso   1.000  C
  H16      1.0000 0.48430  0.69710  0.14590  Biso   1.000  H
  Cu2      1.0000 0.03706  0.78239  0.32825  Biso   1.000  Cu
  O5       1.0000 0.03300  0.70715  0.31950  Biso   1.000  O
  O6       1.0000 0.89100  0.78300  0.17620  Biso   1.000  O
  O7       1.0000 0.95530  0.78150  0.31140  Biso   1.000  O
  O8       1.0000 0.03180  0.85440  0.32010  Biso   1.000  O
  N2       1.0000 0.57310  0.78020  0.24330  Biso   1.000  N
  C21      1.0000 0.84480  0.78320  0.24340  Biso   1.000  C
  C22      1.0000 0.78280  0.78480  0.17070  Biso   1.000  C
  H17      1.0000 0.77740  0.78400  0.12200  Biso   1.000  H
  C23      1.0000 0.85010  0.77490  0.31110  Biso   1.000  C
  H18      1.0000 0.89070  0.76570  0.35850  Biso   1.000  H
  C24      1.0000 0.73610  0.78320  0.24110  Biso   1.000  C
  C25      1.0000 0.68100  0.78350  0.24400  Biso   1.000  C
  C26      1.0000 0.96550  0.01580  0.17680  Biso   1.000  C
  H19      1.0000 0.94280  0.03430  0.12820  Biso   1.000  H
  C27      1.0000 0.90380  0.78370  0.24520  Biso   1.000  C
  C28      1.0000 0.03560  0.54930  0.32010  Biso   1.000  C
  H20      1.0000 0.06390  0.53270  0.36990  Biso   1.000  H
  C29      1.0000 0.96480  0.96300  0.17640  Biso   1.000  C
  H21      1.0000 0.94130  0.94450  0.12780  Biso   1.000  H
  C30      1.0000 0.79870  0.77940  0.31320  Biso   1.000  C
  H22      1.0000 0.80530  0.77990  0.36260  Biso   1.000  H
  C31      1.0000 0.05630  0.43680  0.30400  Biso   1.000  C
  H23      1.0000 0.09590  0.45370  0.34120  Biso   1.000  H
  C32      1.0000 0.98030  0.12620  0.18160  Biso   1.000  C
  H24      1.0000 0.96230  0.10890  0.13270  Biso   1.000  H
  C33      1.0000 0.72980  0.78750  0.17000  Biso   1.000  C
  H25      1.0000 0.68840  0.79240  0.12100  Biso   1.000  H
  C34      1.0000 0.62520  0.80810  0.18510  Biso   1.000  C
  H26      1.0000 0.62210  0.82600  0.14380  Biso   1.000  H
  C35      1.0000 0.02890  0.60170  0.31560  Biso   1.000  C
  H27      1.0000 0.04670  0.61860  0.36460  Biso   1.000  H
  C36      1.0000 0.05340  0.38340  0.30250  Biso   1.000  C
  H28      1.0000 0.09160  0.36520  0.34080  Biso   1.000  H
  C37      1.0000 0.57320  0.80610  0.18760  Biso   1.000  C
  H29      1.0000 0.53530  0.82400  0.14780  Biso   1.000  H
  C38      1.0000 0.68090  0.75190  0.29820  Biso   1.000  C
  H30      1.0000 0.71650  0.73060  0.33480  Biso   1.000  H
  C39      1.0000 0.62580  0.75310  0.29570  Biso   1.000  C
  H31      1.0000 0.62620  0.73340  0.33370  Biso   1.000  H
  C40      1.0000 0.98780  0.17910  0.18750  Biso   1.000  C
  H32      1.0000 0.98430  0.19710  0.14590  Biso   1.000  H
  Cu3      1.0000 0.46294  0.28239  0.17175  Biso   1.000  Cu
  O9       1.0000 0.46700  0.20715  0.18050  Biso   1.000  O
  O10      1.0000 0.60900  0.28300  0.32380  Biso   1.000  O
  O11      1.0000 0.54470  0.28150  0.18860  Biso   1.000  O
  O12      1.0000 0.46820  0.35440  0.17990  Biso   1.000  O
  N3       1.0000 0.92690  0.28020  0.25670  Biso   1.000  N
  C41      1.0000 0.65520  0.28320  0.25660  Biso   1.000  C
  C42      1.0000 0.71720  0.28480  0.32930  Biso   1.000  C
  H33      1.0000 0.72260  0.28400  0.37800  Biso   1.000  H
  C43      1.0000 0.64990  0.27490  0.18890  Biso   1.000  C
  H34      1.0000 0.60930  0.26570  0.14150  Biso   1.000  H
  C44      1.0000 0.76390  0.28320  0.25890  Biso   1.000  C
  C45      1.0000 0.81900  0.28350  0.25600  Biso   1.000  C
  C46      1.0000 0.53450  0.51580  0.32320  Biso   1.000  C
  H35      1.0000 0.55720  0.53430  0.37180  Biso   1.000  H
  C47      1.0000 0.59620  0.28370  0.25480  Biso   1.000  C
  C48      1.0000 0.46440  0.04930  0.17990  Biso   1.000  C
  H36      1.0000 0.43610  0.03270  0.13010  Biso   1.000  H
  C49      1.0000 0.53520  0.46300  0.32360  Biso   1.000  C
  H37      1.0000 0.55870  0.44450  0.37220  Biso   1.000  H
  C50      1.0000 0.70130  0.27940  0.18680  Biso   1.000  C
  H38      1.0000 0.69470  0.27990  0.13740  Biso   1.000  H
  C51      1.0000 0.44370  0.93680  0.19600  Biso   1.000  C
  H39      1.0000 0.40410  0.95370  0.15880  Biso   1.000  H
  C52      1.0000 0.51970  0.62620  0.31840  Biso   1.000  C
  H40      1.0000 0.53770  0.60890  0.36730  Biso   1.000  H
  C53      1.0000 0.77020  0.28750  0.33000  Biso   1.000  C
  H41      1.0000 0.81160  0.29240  0.37900  Biso   1.000  H
  C54      1.0000 0.87480  0.30810  0.31490  Biso   1.000  C
  H42      1.0000 0.87790  0.32600  0.35620  Biso   1.000  H
  C55      1.0000 0.47110  0.10170  0.18440  Biso   1.000  C
  H43      1.0000 0.45330  0.11860  0.13540  Biso   1.000  H
  C56      1.0000 0.44660  0.88340  0.19750  Biso   1.000  C
  H44      1.0000 0.40840  0.86520  0.15920  Biso   1.000  H
  C57      1.0000 0.92680  0.30610  0.31240  Biso   1.000  C
  H45      1.0000 0.96470  0.32400  0.35220  Biso   1.000  H
  C58      1.0000 0.81910  0.25190  0.20180  Biso   1.000  C
  H46      1.0000 0.78350  0.23060  0.16520  Biso   1.000  H
  C59      1.0000 0.87420  0.25310  0.20430  Biso   1.000  C
  H47      1.0000 0.87380  0.23340  0.16630  Biso   1.000  H
  C60      1.0000 0.51220  0.67910  0.31250  Biso   1.000  C
  H48      1.0000 0.51570  0.69710  0.35410  Biso   1.000  H
  Cu4      1.0000 0.96294  0.78239  0.17175  Biso   1.000  Cu
  O13      1.0000 0.96700  0.70715  0.18050  Biso   1.000  O
  O14      1.0000 0.10900  0.78300  0.32380  Biso   1.000  O
  O15      1.0000 0.04470  0.78150  0.18860  Biso   1.000  O
  O16      1.0000 0.96820  0.85440  0.17990  Biso   1.000  O
  N4       1.0000 0.42690  0.78020  0.25670  Biso   1.000  N
  C61      1.0000 0.15520  0.78320  0.25660  Biso   1.000  C
  C62      1.0000 0.21720  0.78480  0.32930  Biso   1.000  C
  H49      1.0000 0.22260  0.78400  0.37800  Biso   1.000  H
  C63      1.0000 0.14990  0.77490  0.18890  Biso   1.000  C
  H50      1.0000 0.10930  0.76570  0.14150  Biso   1.000  H
  C64      1.0000 0.26390  0.78320  0.25890  Biso   1.000  C
  C65      1.0000 0.31900  0.78350  0.25600  Biso   1.000  C
  C66      1.0000 0.03450  0.01580  0.32320  Biso   1.000  C
  H51      1.0000 0.05720  0.03430  0.37180  Biso   1.000  H
  C67      1.0000 0.09620  0.78370  0.25480  Biso   1.000  C
  C68      1.0000 0.96440  0.54930  0.17990  Biso   1.000  C
  H52      1.0000 0.93610  0.53270  0.13010  Biso   1.000  H
  C69      1.0000 0.03520  0.96300  0.32360  Biso   1.000  C
  H53      1.0000 0.05870  0.94450  0.37220  Biso   1.000  H
  C70      1.0000 0.20130  0.77940  0.18680  Biso   1.000  C
  H54      1.0000 0.19470  0.77990  0.13740  Biso   1.000  H
  C71      1.0000 0.94370  0.43680  0.19600  Biso   1.000  C
  H55      1.0000 0.90410  0.45370  0.15880  Biso   1.000  H
  C72      1.0000 0.01970  0.12620  0.31840  Biso   1.000  C
  H56      1.0000 0.03770  0.10890  0.36730  Biso   1.000  H
  C73      1.0000 0.27020  0.78750  0.33000  Biso   1.000  C
  H57      1.0000 0.31160  0.79240  0.37900  Biso   1.000  H
  C74      1.0000 0.37480  0.80810  0.31490  Biso   1.000  C
  H58      1.0000 0.37790  0.82600  0.35620  Biso   1.000  H
  C75      1.0000 0.97110  0.60170  0.18440  Biso   1.000  C
  H59      1.0000 0.95330  0.61860  0.13540  Biso   1.000  H
  C76      1.0000 0.94660  0.38340  0.19750  Biso   1.000  C
  H60      1.0000 0.90840  0.36520  0.15920  Biso   1.000  H
  C77      1.0000 0.42680  0.80610  0.31240  Biso   1.000  C
  H61      1.0000 0.46470  0.82400  0.35220  Biso   1.000  H
  C78      1.0000 0.31910  0.75190  0.20180  Biso   1.000  C
  H62      1.0000 0.28350  0.73060  0.16520  Biso   1.000  H
  C79      1.0000 0.37420  0.75310  0.20430  Biso   1.000  C
  H63      1.0000 0.37380  0.73340  0.16630  Biso   1.000  H
  C80      1.0000 0.01220  0.17910  0.31250  Biso   1.000  C
  H64      1.0000 0.01570  0.19710  0.35410  Biso   1.000  H
  Cu5      1.0000 0.50000  0.78209  0.25000  Biso   1.000  Cu
  C81      1.0000 0.50000  0.13240  0.25000  Biso   1.000  C
  N5       1.0000 0.50000  0.85620  0.25000  Biso   1.000  N
  N6       1.0000 0.50000  0.70550  0.25000  Biso   1.000  N
  C82      1.0000 0.50000  0.02180  0.25000  Biso   1.000  C
  C83      1.0000 0.50000  0.96550  0.25000  Biso   1.000  C
  C84      1.0000 0.50000  0.18900  0.25000  Biso   1.000  C
  C85      1.0000 0.50000  0.54190  0.25000  Biso   1.000  C
  C86      1.0000 0.50000  0.38030  0.25000  Biso   1.000  C
  C87      1.0000 0.50000  0.43750  0.25000  Biso   1.000  C
  C88      1.0000 0.50000  0.59970  0.25000  Biso   1.000  C
  Cu6      1.0000 0.00000  0.28209  0.25000  Biso   1.000  Cu
  C89      1.0000 0.00000  0.63240  0.25000  Biso   1.000  C
  N7       1.0000 0.00000  0.35620  0.25000  Biso   1.000  N
  N8       1.0000 0.00000  0.20550  0.25000  Biso   1.000  N
  C90      1.0000 0.00000  0.52180  0.25000  Biso   1.000  C
  C91      1.0000 0.00000  0.46550  0.25000  Biso   1.000  C
  C92      1.0000 0.00000  0.68900  0.25000  Biso   1.000  C
  C93      1.0000 0.00000  0.04190  0.25000  Biso   1.000  C
  C94      1.0000 0.00000  0.88030  0.25000  Biso   1.000  C
  C95      1.0000 0.00000  0.93750  0.25000  Biso   1.000  C
  C96      1.0000 0.00000  0.09970  0.25000  Biso   1.000  C
  Cu7      1.0000 0.46294  0.71761  0.67175  Biso   1.000  Cu
  O17      1.0000 0.46700  0.79285  0.68050  Biso   1.000  O
  O18      1.0000 0.60900  0.71700  0.82380  Biso   1.000  O
  O19      1.0000 0.54470  0.71850  0.68860  Biso   1.000  O
  O20      1.0000 0.46820  0.64560  0.67990  Biso   1.000  O
  N9       1.0000 0.92690  0.71980  0.75670  Biso   1.000  N
  C97      1.0000 0.65520  0.71680  0.75660  Biso   1.000  C
  C98      1.0000 0.71720  0.71520  0.82930  Biso   1.000  C
  H65      1.0000 0.72260  0.71600  0.87800  Biso   1.000  H
  C99      1.0000 0.64990  0.72510  0.68890  Biso   1.000  C
  H66      1.0000 0.60930  0.73430  0.64150  Biso   1.000  H
  C100     1.0000 0.76390  0.71680  0.75890  Biso   1.000  C
  C101     1.0000 0.81900  0.71650  0.75600  Biso   1.000  C
  C102     1.0000 0.53450  0.48420  0.82320  Biso   1.000  C
  H67      1.0000 0.55720  0.46570  0.87180  Biso   1.000  H
  C103     1.0000 0.59620  0.71630  0.75480  Biso   1.000  C
  C104     1.0000 0.46440  0.95070  0.67990  Biso   1.000  C
  H68      1.0000 0.43610  0.96730  0.63010  Biso   1.000  H
  C105     1.0000 0.53520  0.53700  0.82360  Biso   1.000  C
  H69      1.0000 0.55870  0.55550  0.87220  Biso   1.000  H
  C106     1.0000 0.70130  0.72060  0.68680  Biso   1.000  C
  H70      1.0000 0.69470  0.72010  0.63740  Biso   1.000  H
  C107     1.0000 0.44370  0.06320  0.69600  Biso   1.000  C
  H71      1.0000 0.40410  0.04630  0.65880  Biso   1.000  H
  C108     1.0000 0.51970  0.37380  0.81840  Biso   1.000  C
  H72      1.0000 0.53770  0.39110  0.86730  Biso   1.000  H
  C109     1.0000 0.77020  0.71250  0.83000  Biso   1.000  C
  H73      1.0000 0.81160  0.70760  0.87900  Biso   1.000  H
  C110     1.0000 0.87480  0.69190  0.81490  Biso   1.000  C
  H74      1.0000 0.87790  0.67400  0.85620  Biso   1.000  H
  C111     1.0000 0.47110  0.89830  0.68440  Biso   1.000  C
  H75      1.0000 0.45330  0.88140  0.63540  Biso   1.000  H
  C112     1.0000 0.44660  0.11660  0.69750  Biso   1.000  C
  H76      1.0000 0.40840  0.13480  0.65920  Biso   1.000  H
  C113     1.0000 0.92680  0.69390  0.81240  Biso   1.000  C
  H77      1.0000 0.96470  0.67600  0.85220  Biso   1.000  H
  C114     1.0000 0.81910  0.74810  0.70180  Biso   1.000  C
  H78      1.0000 0.78350  0.76940  0.66520  Biso   1.000  H
  C115     1.0000 0.87420  0.74690  0.70430  Biso   1.000  C
  H79      1.0000 0.87380  0.76660  0.66630  Biso   1.000  H
  C116     1.0000 0.51220  0.32090  0.81250  Biso   1.000  C
  H80      1.0000 0.51570  0.30290  0.85410  Biso   1.000  H
  Cu8      1.0000 0.96294  0.21761  0.67175  Biso   1.000  Cu
  O21      1.0000 0.96700  0.29285  0.68050  Biso   1.000  O
  O22      1.0000 0.10900  0.21700  0.82380  Biso   1.000  O
  O23      1.0000 0.04470  0.21850  0.68860  Biso   1.000  O
  O24      1.0000 0.96820  0.14560  0.67990  Biso   1.000  O
  N10      1.0000 0.42690  0.21980  0.75670  Biso   1.000  N
  C117     1.0000 0.15520  0.21680  0.75660  Biso   1.000  C
  C118     1.0000 0.21720  0.21520  0.82930  Biso   1.000  C
  H81      1.0000 0.22260  0.21600  0.87800  Biso   1.000  H
  C119     1.0000 0.14990  0.22510  0.68890  Biso   1.000  C
  H82      1.0000 0.10930  0.23430  0.64150  Biso   1.000  H
  C120     1.0000 0.26390  0.21680  0.75890  Biso   1.000  C
  C121     1.0000 0.31900  0.21650  0.75600  Biso   1.000  C
  C122     1.0000 0.03450  0.98420  0.82320  Biso   1.000  C
  H83      1.0000 0.05720  0.96570  0.87180  Biso   1.000  H
  C123     1.0000 0.09620  0.21630  0.75480  Biso   1.000  C
  C124     1.0000 0.96440  0.45070  0.67990  Biso   1.000  C
  H84      1.0000 0.93610  0.46730  0.63010  Biso   1.000  H
  C125     1.0000 0.03520  0.03700  0.82360  Biso   1.000  C
  H85      1.0000 0.05870  0.05550  0.87220  Biso   1.000  H
  C126     1.0000 0.20130  0.22060  0.68680  Biso   1.000  C
  H86      1.0000 0.19470  0.22010  0.63740  Biso   1.000  H
  C127     1.0000 0.94370  0.56320  0.69600  Biso   1.000  C
  H87      1.0000 0.90410  0.54630  0.65880  Biso   1.000  H
  C128     1.0000 0.01970  0.87380  0.81840  Biso   1.000  C
  H88      1.0000 0.03770  0.89110  0.86730  Biso   1.000  H
  C129     1.0000 0.27020  0.21250  0.83000  Biso   1.000  C
  H89      1.0000 0.31160  0.20760  0.87900  Biso   1.000  H
  C130     1.0000 0.37480  0.19190  0.81490  Biso   1.000  C
  H90      1.0000 0.37790  0.17400  0.85620  Biso   1.000  H
  C131     1.0000 0.97110  0.39830  0.68440  Biso   1.000  C
  H91      1.0000 0.95330  0.38140  0.63540  Biso   1.000  H
  C132     1.0000 0.94660  0.61660  0.69750  Biso   1.000  C
  H92      1.0000 0.90840  0.63480  0.65920  Biso   1.000  H
  C133     1.0000 0.42680  0.19390  0.81240  Biso   1.000  C
  H93      1.0000 0.46470  0.17600  0.85220  Biso   1.000  H
  C134     1.0000 0.31910  0.24810  0.70180  Biso   1.000  C
  H94      1.0000 0.28350  0.26940  0.66520  Biso   1.000  H
  C135     1.0000 0.37420  0.24690  0.70430  Biso   1.000  C
  H95      1.0000 0.37380  0.26660  0.66630  Biso   1.000  H
  C136     1.0000 0.01220  0.82090  0.81250  Biso   1.000  C
  H96      1.0000 0.01570  0.80290  0.85410  Biso   1.000  H
  Cu9      1.0000 0.53706  0.71761  0.82825  Biso   1.000  Cu
  O25      1.0000 0.53300  0.79285  0.81950  Biso   1.000  O
  O26      1.0000 0.39100  0.71700  0.67620  Biso   1.000  O
  O27      1.0000 0.45530  0.71850  0.81140  Biso   1.000  O
  O28      1.0000 0.53180  0.64560  0.82010  Biso   1.000  O
  N11      1.0000 0.07310  0.71980  0.74330  Biso   1.000  N
  C137     1.0000 0.34480  0.71680  0.74340  Biso   1.000  C
  C138     1.0000 0.28280  0.71520  0.67070  Biso   1.000  C
  H97      1.0000 0.27740  0.71600  0.62200  Biso   1.000  H
  C139     1.0000 0.35010  0.72510  0.81110  Biso   1.000  C
  H98      1.0000 0.39070  0.73430  0.85850  Biso   1.000  H
  C140     1.0000 0.23610  0.71680  0.74110  Biso   1.000  C
  C141     1.0000 0.18100  0.71650  0.74400  Biso   1.000  C
  C142     1.0000 0.46550  0.48420  0.67680  Biso   1.000  C
  H99      1.0000 0.44280  0.46570  0.62820  Biso   1.000  H
  C143     1.0000 0.40380  0.71630  0.74520  Biso   1.000  C
  C144     1.0000 0.53560  0.95070  0.82010  Biso   1.000  C
  H100     1.0000 0.56390  0.96730  0.86990  Biso   1.000  H
  C145     1.0000 0.46480  0.53700  0.67640  Biso   1.000  C
  H101     1.0000 0.44130  0.55550  0.62780  Biso   1.000  H
  C146     1.0000 0.29870  0.72060  0.81320  Biso   1.000  C
  H102     1.0000 0.30530  0.72010  0.86260  Biso   1.000  H
  C147     1.0000 0.55630  0.06320  0.80400  Biso   1.000  C
  H103     1.0000 0.59590  0.04630  0.84120  Biso   1.000  H
  C148     1.0000 0.48030  0.37380  0.68160  Biso   1.000  C
  H104     1.0000 0.46230  0.39110  0.63270  Biso   1.000  H
  C149     1.0000 0.22980  0.71250  0.67000  Biso   1.000  C
  H105     1.0000 0.18840  0.70760  0.62100  Biso   1.000  H
  C150     1.0000 0.12520  0.69190  0.68510  Biso   1.000  C
  H106     1.0000 0.12210  0.67400  0.64380  Biso   1.000  H
  C151     1.0000 0.52890  0.89830  0.81560  Biso   1.000  C
  H107     1.0000 0.54670  0.88140  0.86460  Biso   1.000  H
  C152     1.0000 0.55340  0.11660  0.80250  Biso   1.000  C
  H108     1.0000 0.59160  0.13480  0.84080  Biso   1.000  H
  C153     1.0000 0.07320  0.69390  0.68760  Biso   1.000  C
  H109     1.0000 0.03530  0.67600  0.64780  Biso   1.000  H
  C154     1.0000 0.18090  0.74810  0.79820  Biso   1.000  C
  H110     1.0000 0.21650  0.76940  0.83480  Biso   1.000  H
  C155     1.0000 0.12580  0.74690  0.79570  Biso   1.000  C
  H111     1.0000 0.12620  0.76660  0.83370  Biso   1.000  H
  C156     1.0000 0.48780  0.32090  0.68750  Biso   1.000  C
  H112     1.0000 0.48430  0.30290  0.64590  Biso   1.000  H
  Cu10     1.0000 0.03706  0.21761  0.82825  Biso   1.000  Cu
  O29      1.0000 0.03300  0.29285  0.81950  Biso   1.000  O
  O30      1.0000 0.89100  0.21700  0.67620  Biso   1.000  O
  O31      1.0000 0.95530  0.21850  0.81140  Biso   1.000  O
  O32      1.0000 0.03180  0.14560  0.82010  Biso   1.000  O
  N12      1.0000 0.57310  0.21980  0.74330  Biso   1.000  N
  C157     1.0000 0.84480  0.21680  0.74340  Biso   1.000  C
  C158     1.0000 0.78280  0.21520  0.67070  Biso   1.000  C
  H113     1.0000 0.77740  0.21600  0.62200  Biso   1.000  H
  C159     1.0000 0.85010  0.22510  0.81110  Biso   1.000  C
  H114     1.0000 0.89070  0.23430  0.85850  Biso   1.000  H
  C160     1.0000 0.73610  0.21680  0.74110  Biso   1.000  C
  C161     1.0000 0.68100  0.21650  0.74400  Biso   1.000  C
  C162     1.0000 0.96550  0.98420  0.67680  Biso   1.000  C
  H115     1.0000 0.94280  0.96570  0.62820  Biso   1.000  H
  C163     1.0000 0.90380  0.21630  0.74520  Biso   1.000  C
  C164     1.0000 0.03560  0.45070  0.82010  Biso   1.000  C
  H116     1.0000 0.06390  0.46730  0.86990  Biso   1.000  H
  C165     1.0000 0.96480  0.03700  0.67640  Biso   1.000  C
  H117     1.0000 0.94130  0.05550  0.62780  Biso   1.000  H
  C166     1.0000 0.79870  0.22060  0.81320  Biso   1.000  C
  H118     1.0000 0.80530  0.22010  0.86260  Biso   1.000  H
  C167     1.0000 0.05630  0.56320  0.80400  Biso   1.000  C
  H119     1.0000 0.09590  0.54630  0.84120  Biso   1.000  H
  C168     1.0000 0.98030  0.87380  0.68160  Biso   1.000  C
  H120     1.0000 0.96230  0.89110  0.63270  Biso   1.000  H
  C169     1.0000 0.72980  0.21250  0.67000  Biso   1.000  C
  H121     1.0000 0.68840  0.20760  0.62100  Biso   1.000  H
  C170     1.0000 0.62520  0.19190  0.68510  Biso   1.000  C
  H122     1.0000 0.62210  0.17400  0.64380  Biso   1.000  H
  C171     1.0000 0.02890  0.39830  0.81560  Biso   1.000  C
  H123     1.0000 0.04670  0.38140  0.86460  Biso   1.000  H
  C172     1.0000 0.05340  0.61660  0.80250  Biso   1.000  C
  H124     1.0000 0.09160  0.63480  0.84080  Biso   1.000  H
  C173     1.0000 0.57320  0.19390  0.68760  Biso   1.000  C
  H125     1.0000 0.53530  0.17600  0.64780  Biso   1.000  H
  C174     1.0000 0.68090  0.24810  0.79820  Biso   1.000  C
  H126     1.0000 0.71650  0.26940  0.83480  Biso   1.000  H
  C175     1.0000 0.62580  0.24690  0.79570  Biso   1.000  C
  H127     1.0000 0.62620  0.26660  0.83370  Biso   1.000  H
  C176     1.0000 0.98780  0.82090  0.68750  Biso   1.000  C
  H128     1.0000 0.98430  0.80290  0.64590  Biso   1.000  H
  Cu11     1.0000 0.50000  0.21791  0.75000  Biso   1.000  Cu
  C177     1.0000 0.50000  0.86760  0.75000  Biso   1.000  C
  N13      1.0000 0.50000  0.14380  0.75000  Biso   1.000  N
  N14      1.0000 0.50000  0.29450  0.75000  Biso   1.000  N
  C178     1.0000 0.50000  0.97820  0.75000  Biso   1.000  C
  C179     1.0000 0.50000  0.03450  0.75000  Biso   1.000  C
  C180     1.0000 0.50000  0.81100  0.75000  Biso   1.000  C
  C181     1.0000 0.50000  0.45810  0.75000  Biso   1.000  C
  C182     1.0000 0.50000  0.61970  0.75000  Biso   1.000  C
  C183     1.0000 0.50000  0.56250  0.75000  Biso   1.000  C
  C184     1.0000 0.50000  0.40030  0.75000  Biso   1.000  C
  Cu12     1.0000 0.00000  0.71791  0.75000  Biso   1.000  Cu
  C185     1.0000 0.00000  0.36760  0.75000  Biso   1.000  C
  N15      1.0000 0.00000  0.64380  0.75000  Biso   1.000  N
  N16      1.0000 0.00000  0.79450  0.75000  Biso   1.000  N
  C186     1.0000 0.00000  0.47820  0.75000  Biso   1.000  C
  C187     1.0000 0.00000  0.53450  0.75000  Biso   1.000  C
  C188     1.0000 0.00000  0.31100  0.75000  Biso   1.000  C
  C189     1.0000 0.00000  0.95810  0.75000  Biso   1.000  C
  C190     1.0000 0.00000  0.11970  0.75000  Biso   1.000  C
  C191     1.0000 0.00000  0.06250  0.75000  Biso   1.000  C
  C192     1.0000 0.00000  0.90030  0.75000  Biso   1.000  C
