data_image0
_cell_length_a       26.712
_cell_length_b       12.445
_cell_length_c       17.903
_cell_angle_alpha    90
_cell_angle_beta     101.851
_cell_angle_gamma    90

_symmetry_space_group_name_H-M    "P 1"
_symmetry_int_tables_number       1

loop_
  _symmetry_equiv_pos_as_xyz
  'x, y, z'

loop_
  _atom_site_label
  _atom_site_occupancy
  _atom_site_fract_x
  _atom_site_fract_y
  _atom_site_fract_z
  _atom_site_thermal_displace_type
  _atom_site_B_iso_or_equiv
  _atom_site_type_symbol
  Zn1      1.0000 0.74854  0.22701  0.10581  Biso   1.000  Zn
  N1       1.0000 0.69704  0.36480  0.11110  Biso   1.000  N
  N2       1.0000 0.63308  0.47990  0.08750  Biso   1.000  N
  N3       1.0000 0.36488  0.47790  0.14890  Biso   1.000  N
  N4       1.0000 0.30135  0.58950  0.10530  Biso   1.000  N
  C1       1.0000 0.65200  0.38780  0.06830  Biso   1.000  C
  H1       1.0000 0.63530  0.34400  0.02890  Biso   1.000  H
  C2       1.0000 0.66840  0.52150  0.14630  Biso   1.000  C
  H2       1.0000 0.66610  0.58590  0.17180  Biso   1.000  H
  C3       1.0000 0.70730  0.45070  0.16030  Biso   1.000  C
  H3       1.0000 0.73680  0.45860  0.19780  Biso   1.000  H
  C4       1.0000 0.58370  0.52930  0.05170  Biso   1.000  C
  H4       1.0000 0.57420  0.50490  0.99920  Biso   1.000  H
  H5       1.0000 0.58790  0.60670  0.05090  Biso   1.000  H
  C5       1.0000 0.54110  0.50280  0.09230  Biso   1.000  C
  C6       1.0000 0.52500  0.39820  0.09980  Biso   1.000  C
  H6       1.0000 0.54160  0.34200  0.08090  Biso   1.000  H
  C7       1.0000 0.48480  0.37600  0.13470  Biso   1.000  C
  H7       1.0000 0.47570  0.30490  0.14100  Biso   1.000  H
  C8       1.0000 0.45750  0.45850  0.16100  Biso   1.000  C
  C9       1.0000 0.47400  0.56390  0.15290  Biso   1.000  C
  H8       1.0000 0.45670  0.62050  0.17030  Biso   1.000  H
  C10      1.0000 0.51510  0.58590  0.11990  Biso   1.000  C
  H9       1.0000 0.52550  0.65660  0.11600  Biso   1.000  H
  C11      1.0000 0.41290  0.43700  0.19610  Biso   1.000  C
  H10      1.0000 0.40980  0.36020  0.20310  Biso   1.000  H
  H11      1.0000 0.41840  0.47060  0.24600  Biso   1.000  H
  C12      1.0000 0.34220  0.57210  0.15790  Biso   1.000  C
  H12      1.0000 0.35440  0.61990  0.19750  Biso   1.000  H
  C13      1.0000 0.29720  0.49990  0.05830  Biso   1.000  C
  H13      1.0000 0.27160  0.48860  0.01520  Biso   1.000  H
  C14      1.0000 0.33500  0.43350  0.08400  Biso   1.000  C
  H14      1.0000 0.34080  0.36800  0.06220  Biso   1.000  H
  Zn2      1.0000 0.24854  0.72701  0.10581  Biso   1.000  Zn
  N5       1.0000 0.19704  0.86480  0.11110  Biso   1.000  N
  N6       1.0000 0.13308  0.97990  0.08750  Biso   1.000  N
  N7       1.0000 0.86488  0.97790  0.14890  Biso   1.000  N
  N8       1.0000 0.80135  0.08950  0.10530  Biso   1.000  N
  C15      1.0000 0.15200  0.88780  0.06830  Biso   1.000  C
  H15      1.0000 0.13530  0.84400  0.02890  Biso   1.000  H
  C16      1.0000 0.16840  0.02150  0.14630  Biso   1.000  C
  H16      1.0000 0.16610  0.08590  0.17180  Biso   1.000  H
  C17      1.0000 0.20730  0.95070  0.16030  Biso   1.000  C
  H17      1.0000 0.23680  0.95860  0.19780  Biso   1.000  H
  C18      1.0000 0.08370  0.02930  0.05170  Biso   1.000  C
  H18      1.0000 0.07420  0.00490  0.99920  Biso   1.000  H
  H19      1.0000 0.08790  0.10670  0.05090  Biso   1.000  H
  C19      1.0000 0.04110  0.00280  0.09230  Biso   1.000  C
  C20      1.0000 0.02500  0.89820  0.09980  Biso   1.000  C
  H20      1.0000 0.04160  0.84200  0.08090  Biso   1.000  H
  C21      1.0000 0.98480  0.87600  0.13470  Biso   1.000  C
  H21      1.0000 0.97570  0.80490  0.14100  Biso   1.000  H
  C22      1.0000 0.95750  0.95850  0.16100  Biso   1.000  C
  C23      1.0000 0.97400  0.06390  0.15290  Biso   1.000  C
  H22      1.0000 0.95670  0.12050  0.17030  Biso   1.000  H
  C24      1.0000 0.01510  0.08590  0.11990  Biso   1.000  C
  H23      1.0000 0.02550  0.15660  0.11600  Biso   1.000  H
  C25      1.0000 0.91290  0.93700  0.19610  Biso   1.000  C
  H24      1.0000 0.90980  0.86020  0.20310  Biso   1.000  H
  H25      1.0000 0.91840  0.97060  0.24600  Biso   1.000  H
  C26      1.0000 0.84220  0.07210  0.15790  Biso   1.000  C
  H26      1.0000 0.85440  0.11990  0.19750  Biso   1.000  H
  C27      1.0000 0.79720  0.99990  0.05830  Biso   1.000  C
  H27      1.0000 0.77160  0.98860  0.01520  Biso   1.000  H
  C28      1.0000 0.83500  0.93350  0.08400  Biso   1.000  C
  H28      1.0000 0.84080  0.86800  0.06220  Biso   1.000  H
  Zn3      1.0000 0.25146  0.22701  0.39419  Biso   1.000  Zn
  N9       1.0000 0.30296  0.36480  0.38890  Biso   1.000  N
  N10      1.0000 0.36692  0.47990  0.41250  Biso   1.000  N
  N11      1.0000 0.63512  0.47790  0.35110  Biso   1.000  N
  N12      1.0000 0.69865  0.58950  0.39470  Biso   1.000  N
  C29      1.0000 0.34800  0.38780  0.43170  Biso   1.000  C
  H29      1.0000 0.36470  0.34400  0.47110  Biso   1.000  H
  C30      1.0000 0.33160  0.52150  0.35370  Biso   1.000  C
  H30      1.0000 0.33390  0.58590  0.32820  Biso   1.000  H
  C31      1.0000 0.29270  0.45070  0.33970  Biso   1.000  C
  H31      1.0000 0.26320  0.45860  0.30220  Biso   1.000  H
  C32      1.0000 0.41630  0.52930  0.44830  Biso   1.000  C
  H32      1.0000 0.42580  0.50490  0.50080  Biso   1.000  H
  H33      1.0000 0.41210  0.60670  0.44910  Biso   1.000  H
  C33      1.0000 0.45890  0.50280  0.40770  Biso   1.000  C
  C34      1.0000 0.47500  0.39820  0.40020  Biso   1.000  C
  H34      1.0000 0.45840  0.34200  0.41910  Biso   1.000  H
  C35      1.0000 0.51520  0.37600  0.36530  Biso   1.000  C
  H35      1.0000 0.52430  0.30490  0.35900  Biso   1.000  H
  C36      1.0000 0.54250  0.45850  0.33900  Biso   1.000  C
  C37      1.0000 0.52600  0.56390  0.34710  Biso   1.000  C
  H36      1.0000 0.54330  0.62050  0.32970  Biso   1.000  H
  C38      1.0000 0.48490  0.58590  0.38010  Biso   1.000  C
  H37      1.0000 0.47450  0.65660  0.38400  Biso   1.000  H
  C39      1.0000 0.58710  0.43700  0.30390  Biso   1.000  C
  H38      1.0000 0.59020  0.36020  0.29690  Biso   1.000  H
  H39      1.0000 0.58160  0.47060  0.25400  Biso   1.000  H
  C40      1.0000 0.65780  0.57210  0.34210  Biso   1.000  C
  H40      1.0000 0.64560  0.61990  0.30250  Biso   1.000  H
  C41      1.0000 0.70280  0.49990  0.44170  Biso   1.000  C
  H41      1.0000 0.72840  0.48860  0.48480  Biso   1.000  H
  C42      1.0000 0.66500  0.43350  0.41600  Biso   1.000  C
  H42      1.0000 0.65920  0.36800  0.43780  Biso   1.000  H
  Zn4      1.0000 0.75146  0.72701  0.39419  Biso   1.000  Zn
  N13      1.0000 0.80296  0.86480  0.38890  Biso   1.000  N
  N14      1.0000 0.86692  0.97990  0.41250  Biso   1.000  N
  N15      1.0000 0.13512  0.97790  0.35110  Biso   1.000  N
  N16      1.0000 0.19865  0.08950  0.39470  Biso   1.000  N
  C43      1.0000 0.84800  0.88780  0.43170  Biso   1.000  C
  H43      1.0000 0.86470  0.84400  0.47110  Biso   1.000  H
  C44      1.0000 0.83160  0.02150  0.35370  Biso   1.000  C
  H44      1.0000 0.83390  0.08590  0.32820  Biso   1.000  H
  C45      1.0000 0.79270  0.95070  0.33970  Biso   1.000  C
  H45      1.0000 0.76320  0.95860  0.30220  Biso   1.000  H
  C46      1.0000 0.91630  0.02930  0.44830  Biso   1.000  C
  H46      1.0000 0.92580  0.00490  0.50080  Biso   1.000  H
  H47      1.0000 0.91210  0.10670  0.44910  Biso   1.000  H
  C47      1.0000 0.95890  0.00280  0.40770  Biso   1.000  C
  C48      1.0000 0.97500  0.89820  0.40020  Biso   1.000  C
  H48      1.0000 0.95840  0.84200  0.41910  Biso   1.000  H
  C49      1.0000 0.01520  0.87600  0.36530  Biso   1.000  C
  H49      1.0000 0.02430  0.80490  0.35900  Biso   1.000  H
  C50      1.0000 0.04250  0.95850  0.33900  Biso   1.000  C
  C51      1.0000 0.02600  0.06390  0.34710  Biso   1.000  C
  H50      1.0000 0.04330  0.12050  0.32970  Biso   1.000  H
  C52      1.0000 0.98490  0.08590  0.38010  Biso   1.000  C
  H51      1.0000 0.97450  0.15660  0.38400  Biso   1.000  H
  C53      1.0000 0.08710  0.93700  0.30390  Biso   1.000  C
  H52      1.0000 0.09020  0.86020  0.29690  Biso   1.000  H
  H53      1.0000 0.08160  0.97060  0.25400  Biso   1.000  H
  C54      1.0000 0.15780  0.07210  0.34210  Biso   1.000  C
  H54      1.0000 0.14560  0.11990  0.30250  Biso   1.000  H
  C55      1.0000 0.20280  0.99990  0.44170  Biso   1.000  C
  H55      1.0000 0.22840  0.98860  0.48480  Biso   1.000  H
  C56      1.0000 0.16500  0.93350  0.41600  Biso   1.000  C
  H56      1.0000 0.15920  0.86800  0.43780  Biso   1.000  H
  Zn5      1.0000 0.25146  0.77299  0.89419  Biso   1.000  Zn
  N17      1.0000 0.30296  0.63520  0.88890  Biso   1.000  N
  N18      1.0000 0.36692  0.52010  0.91250  Biso   1.000  N
  N19      1.0000 0.63512  0.52210  0.85110  Biso   1.000  N
  N20      1.0000 0.69865  0.41050  0.89470  Biso   1.000  N
  C57      1.0000 0.34800  0.61220  0.93170  Biso   1.000  C
  H57      1.0000 0.36470  0.65600  0.97110  Biso   1.000  H
  C58      1.0000 0.33160  0.47850  0.85370  Biso   1.000  C
  H58      1.0000 0.33390  0.41410  0.82820  Biso   1.000  H
  C59      1.0000 0.29270  0.54930  0.83970  Biso   1.000  C
  H59      1.0000 0.26320  0.54140  0.80220  Biso   1.000  H
  C60      1.0000 0.41630  0.47070  0.94830  Biso   1.000  C
  H60      1.0000 0.42580  0.49510  0.00080  Biso   1.000  H
  H61      1.0000 0.41210  0.39330  0.94910  Biso   1.000  H
  C61      1.0000 0.45890  0.49720  0.90770  Biso   1.000  C
  C62      1.0000 0.47500  0.60180  0.90020  Biso   1.000  C
  H62      1.0000 0.45840  0.65800  0.91910  Biso   1.000  H
  C63      1.0000 0.51520  0.62400  0.86530  Biso   1.000  C
  H63      1.0000 0.52430  0.69510  0.85900  Biso   1.000  H
  C64      1.0000 0.54250  0.54150  0.83900  Biso   1.000  C
  C65      1.0000 0.52600  0.43610  0.84710  Biso   1.000  C
  H64      1.0000 0.54330  0.37950  0.82970  Biso   1.000  H
  C66      1.0000 0.48490  0.41410  0.88010  Biso   1.000  C
  H65      1.0000 0.47450  0.34340  0.88400  Biso   1.000  H
  C67      1.0000 0.58710  0.56300  0.80390  Biso   1.000  C
  H66      1.0000 0.59020  0.63980  0.79690  Biso   1.000  H
  H67      1.0000 0.58160  0.52940  0.75400  Biso   1.000  H
  C68      1.0000 0.65780  0.42790  0.84210  Biso   1.000  C
  H68      1.0000 0.64560  0.38010  0.80250  Biso   1.000  H
  C69      1.0000 0.70280  0.50010  0.94170  Biso   1.000  C
  H69      1.0000 0.72840  0.51140  0.98480  Biso   1.000  H
  C70      1.0000 0.66500  0.56650  0.91600  Biso   1.000  C
  H70      1.0000 0.65920  0.63200  0.93780  Biso   1.000  H
  Zn6      1.0000 0.75146  0.27299  0.89419  Biso   1.000  Zn
  N21      1.0000 0.80296  0.13520  0.88890  Biso   1.000  N
  N22      1.0000 0.86692  0.02010  0.91250  Biso   1.000  N
  N23      1.0000 0.13512  0.02210  0.85110  Biso   1.000  N
  N24      1.0000 0.19865  0.91050  0.89470  Biso   1.000  N
  C71      1.0000 0.84800  0.11220  0.93170  Biso   1.000  C
  H71      1.0000 0.86470  0.15600  0.97110  Biso   1.000  H
  C72      1.0000 0.83160  0.97850  0.85370  Biso   1.000  C
  H72      1.0000 0.83390  0.91410  0.82820  Biso   1.000  H
  C73      1.0000 0.79270  0.04930  0.83970  Biso   1.000  C
  H73      1.0000 0.76320  0.04140  0.80220  Biso   1.000  H
  C74      1.0000 0.91630  0.97070  0.94830  Biso   1.000  C
  H74      1.0000 0.92580  0.99510  0.00080  Biso   1.000  H
  H75      1.0000 0.91210  0.89330  0.94910  Biso   1.000  H
  C75      1.0000 0.95890  0.99720  0.90770  Biso   1.000  C
  C76      1.0000 0.97500  0.10180  0.90020  Biso   1.000  C
  H76      1.0000 0.95840  0.15800  0.91910  Biso   1.000  H
  C77      1.0000 0.01520  0.12400  0.86530  Biso   1.000  C
  H77      1.0000 0.02430  0.19510  0.85900  Biso   1.000  H
  C78      1.0000 0.04250  0.04150  0.83900  Biso   1.000  C
  C79      1.0000 0.02600  0.93610  0.84710  Biso   1.000  C
  H78      1.0000 0.04330  0.87950  0.82970  Biso   1.000  H
  C80      1.0000 0.98490  0.91410  0.88010  Biso   1.000  C
  H79      1.0000 0.97450  0.84340  0.88400  Biso   1.000  H
  C81      1.0000 0.08710  0.06300  0.80390  Biso   1.000  C
  H80      1.0000 0.09020  0.13980  0.79690  Biso   1.000  H
  H81      1.0000 0.08160  0.02940  0.75400  Biso   1.000  H
  C82      1.0000 0.15780  0.92790  0.84210  Biso   1.000  C
  H82      1.0000 0.14560  0.88010  0.80250  Biso   1.000  H
  C83      1.0000 0.20280  0.00010  0.94170  Biso   1.000  C
  H83      1.0000 0.22840  0.01140  0.98480  Biso   1.000  H
  C84      1.0000 0.16500  0.06650  0.91600  Biso   1.000  C
  H84      1.0000 0.15920  0.13200  0.93780  Biso   1.000  H
  Zn7      1.0000 0.74854  0.77299  0.60581  Biso   1.000  Zn
  N25      1.0000 0.69704  0.63520  0.61110  Biso   1.000  N
  N26      1.0000 0.63308  0.52010  0.58750  Biso   1.000  N
  N27      1.0000 0.36488  0.52210  0.64890  Biso   1.000  N
  N28      1.0000 0.30135  0.41050  0.60530  Biso   1.000  N
  C85      1.0000 0.65200  0.61220  0.56830  Biso   1.000  C
  H85      1.0000 0.63530  0.65600  0.52890  Biso   1.000  H
  C86      1.0000 0.66840  0.47850  0.64630  Biso   1.000  C
  H86      1.0000 0.66610  0.41410  0.67180  Biso   1.000  H
  C87      1.0000 0.70730  0.54930  0.66030  Biso   1.000  C
  H87      1.0000 0.73680  0.54140  0.69780  Biso   1.000  H
  C88      1.0000 0.58370  0.47070  0.55170  Biso   1.000  C
  H88      1.0000 0.57420  0.49510  0.49920  Biso   1.000  H
  H89      1.0000 0.58790  0.39330  0.55090  Biso   1.000  H
  C89      1.0000 0.54110  0.49720  0.59230  Biso   1.000  C
  C90      1.0000 0.52500  0.60180  0.59980  Biso   1.000  C
  H90      1.0000 0.54160  0.65800  0.58090  Biso   1.000  H
  C91      1.0000 0.48480  0.62400  0.63470  Biso   1.000  C
  H91      1.0000 0.47570  0.69510  0.64100  Biso   1.000  H
  C92      1.0000 0.45750  0.54150  0.66100  Biso   1.000  C
  C93      1.0000 0.47400  0.43610  0.65290  Biso   1.000  C
  H92      1.0000 0.45670  0.37950  0.67030  Biso   1.000  H
  C94      1.0000 0.51510  0.41410  0.61990  Biso   1.000  C
  H93      1.0000 0.52550  0.34340  0.61600  Biso   1.000  H
  C95      1.0000 0.41290  0.56300  0.69610  Biso   1.000  C
  H94      1.0000 0.40980  0.63980  0.70310  Biso   1.000  H
  H95      1.0000 0.41840  0.52940  0.74600  Biso   1.000  H
  C96      1.0000 0.34220  0.42790  0.65790  Biso   1.000  C
  H96      1.0000 0.35440  0.38010  0.69750  Biso   1.000  H
  C97      1.0000 0.29720  0.50010  0.55830  Biso   1.000  C
  H97      1.0000 0.27160  0.51140  0.51520  Biso   1.000  H
  C98      1.0000 0.33500  0.56650  0.58400  Biso   1.000  C
  H98      1.0000 0.34080  0.63200  0.56220  Biso   1.000  H
  Zn8      1.0000 0.24854  0.27299  0.60581  Biso   1.000  Zn
  N29      1.0000 0.19704  0.13520  0.61110  Biso   1.000  N
  N30      1.0000 0.13308  0.02010  0.58750  Biso   1.000  N
  N31      1.0000 0.86488  0.02210  0.64890  Biso   1.000  N
  N32      1.0000 0.80135  0.91050  0.60530  Biso   1.000  N
  C99      1.0000 0.15200  0.11220  0.56830  Biso   1.000  C
  H99      1.0000 0.13530  0.15600  0.52890  Biso   1.000  H
  C100     1.0000 0.16840  0.97850  0.64630  Biso   1.000  C
  H100     1.0000 0.16610  0.91410  0.67180  Biso   1.000  H
  C101     1.0000 0.20730  0.04930  0.66030  Biso   1.000  C
  H101     1.0000 0.23680  0.04140  0.69780  Biso   1.000  H
  C102     1.0000 0.08370  0.97070  0.55170  Biso   1.000  C
  H102     1.0000 0.07420  0.99510  0.49920  Biso   1.000  H
  H103     1.0000 0.08790  0.89330  0.55090  Biso   1.000  H
  C103     1.0000 0.04110  0.99720  0.59230  Biso   1.000  C
  C104     1.0000 0.02500  0.10180  0.59980  Biso   1.000  C
  H104     1.0000 0.04160  0.15800  0.58090  Biso   1.000  H
  C105     1.0000 0.98480  0.12400  0.63470  Biso   1.000  C
  H105     1.0000 0.97570  0.19510  0.64100  Biso   1.000  H
  C106     1.0000 0.95750  0.04150  0.66100  Biso   1.000  C
  C107     1.0000 0.97400  0.93610  0.65290  Biso   1.000  C
  H106     1.0000 0.95670  0.87950  0.67030  Biso   1.000  H
  C108     1.0000 0.01510  0.91410  0.61990  Biso   1.000  C
  H107     1.0000 0.02550  0.84340  0.61600  Biso   1.000  H
  C109     1.0000 0.91290  0.06300  0.69610  Biso   1.000  C
  H108     1.0000 0.90980  0.13980  0.70310  Biso   1.000  H
  H109     1.0000 0.91840  0.02940  0.74600  Biso   1.000  H
  C110     1.0000 0.84220  0.92790  0.65790  Biso   1.000  C
  H110     1.0000 0.85440  0.88010  0.69750  Biso   1.000  H
  C111     1.0000 0.79720  0.00010  0.55830  Biso   1.000  C
  H111     1.0000 0.77160  0.01140  0.51520  Biso   1.000  H
  C112     1.0000 0.83500  0.06650  0.58400  Biso   1.000  C
  H112     1.0000 0.84080  0.13200  0.56220  Biso   1.000  H
