data_image0
_cell_length_a       14.8491
_cell_length_b       14.9277
_cell_length_c       22.18
_cell_angle_alpha    72.129
_cell_angle_beta     87.949
_cell_angle_gamma    69.453

_symmetry_space_group_name_H-M    "P 1"
_symmetry_int_tables_number       1

loop_
  _symmetry_equiv_pos_as_xyz
  'x, y, z'

loop_
  _atom_site_label
  _atom_site_occupancy
  _atom_site_fract_x
  _atom_site_fract_y
  _atom_site_fract_z
  _atom_site_thermal_displace_type
  _atom_site_B_iso_or_equiv
  _atom_site_type_symbol
  Cu1      1.0000 0.91740  0.23400  0.20800  Biso   1.000  Cu
  C1       1.0000 0.33900  0.17900  0.52400  Biso   1.000  C
  H1       1.0000 0.33770  0.13450  0.56570  Biso   1.000  H
  H2       1.0000 0.40150  0.18640  0.52100  Biso   1.000  H
  N1       1.0000 0.03500  0.13600  0.26670  Biso   1.000  N
  C2       1.0000 0.04700  0.04500  0.29920  Biso   1.000  C
  H3       1.0000 0.00300  0.01280  0.30080  Biso   1.000  H
  N2       1.0000 0.13100  0.00500  0.32920  Biso   1.000  N
  N3       1.0000 0.17100  0.07200  0.31520  Biso   1.000  N
  C3       1.0000 0.11100  0.15300  0.27660  Biso   1.000  C
  H4       1.0000 0.12180  0.21340  0.25880  Biso   1.000  H
  C4       1.0000 0.27500  0.04400  0.32200  Biso   1.000  C
  H5       1.0000 0.29720  0.07980  0.28390  Biso   1.000  H
  H6       1.0000 0.30650  0.97220  0.32960  Biso   1.000  H
  C5       1.0000 0.29700  0.07200  0.37800  Biso   1.000  C
  C6       1.0000 0.23100  0.08300  0.42100  Biso   1.000  C
  H7       1.0000 0.17570  0.06900  0.41690  Biso   1.000  H
  C7       1.0000 0.24600  0.11300  0.47000  Biso   1.000  C
  H8       1.0000 0.20070  0.12050  0.49940  Biso   1.000  H
  C8       1.0000 0.32700  0.13300  0.47500  Biso   1.000  C
  C9       1.0000 0.39300  0.12200  0.43200  Biso   1.000  C
  H9       1.0000 0.44820  0.13550  0.43610  Biso   1.000  H
  C10      1.0000 0.37800  0.09100  0.38300  Biso   1.000  C
  H10      1.0000 0.42330  0.08400  0.35360  Biso   1.000  H
  C11      1.0000 0.64800  0.13500  0.36000  Biso   1.000  C
  H11      1.0000 0.67850  0.09780  0.40240  Biso   1.000  H
  H12      1.0000 0.64550  0.08650  0.34000  Biso   1.000  H
  N4       1.0000 0.82200  0.22100  0.27610  Biso   1.000  N
  C12      1.0000 0.80700  0.25900  0.32230  Biso   1.000  C
  H13      1.0000 0.84130  0.29490  0.33220  Biso   1.000  H
  N5       1.0000 0.73800  0.23700  0.35240  Biso   1.000  N
  N6       1.0000 0.71000  0.18600  0.32470  Biso   1.000  N
  C13      1.0000 0.76100  0.17700  0.27760  Biso   1.000  C
  H14      1.0000 0.75570  0.14310  0.24950  Biso   1.000  H
  C14      1.0000 0.54600  0.19700  0.36600  Biso   1.000  C
  C15      1.0000 0.54400  0.14100  0.42800  Biso   1.000  C
  H15      1.0000 0.58030  0.07200  0.44210  Biso   1.000  H
  C16      1.0000 0.48800  0.18600  0.46900  Biso   1.000  C
  H16      1.0000 0.48630  0.14730  0.51080  Biso   1.000  H
  C17      1.0000 0.43300  0.28700  0.44800  Biso   1.000  C
  C18      1.0000 0.43500  0.34400  0.38600  Biso   1.000  C
  H17      1.0000 0.39860  0.41250  0.37220  Biso   1.000  H
  C19      1.0000 0.49100  0.29900  0.34500  Biso   1.000  C
  H18      1.0000 0.49270  0.33710  0.30350  Biso   1.000  H
  C20      1.0000 0.37500  0.34300  0.49200  Biso   1.000  C
  H19      1.0000 0.40030  0.30480  0.53600  Biso   1.000  H
  H20      1.0000 0.38130  0.40810  0.48250  Biso   1.000  H
  N7       1.0000 0.14200  0.40800  0.50610  Biso   1.000  N
  C21      1.0000 0.21400  0.43600  0.48160  Biso   1.000  C
  H21      1.0000 0.21100  0.50190  0.46380  Biso   1.000  H
  N8       1.0000 0.28900  0.35400  0.48660  Biso   1.000  N
  N9       1.0000 0.26500  0.27600  0.51430  Biso   1.000  N
  C22      1.0000 0.17400  0.30900  0.52630  Biso   1.000  C
  H22      1.0000 0.13790  0.26930  0.54570  Biso   1.000  H
  N10      1.0000 0.03980  0.60650  0.52320  Biso   1.000  N
  C23      1.0000 0.02900  0.62510  0.57890  Biso   1.000  C
  H23      1.0000 0.00490  0.59140  0.61420  Biso   1.000  H
  N11      1.0000 0.06050  0.70070  0.57480  Biso   1.000  N
  N12      1.0000 0.09010  0.72880  0.51650  Biso   1.000  N
  C24      1.0000 0.07700  0.67100  0.48460  Biso   1.000  C
  H24      1.0000 0.09190  0.67400  0.44310  Biso   1.000  H
  C25      1.0000 0.13100  0.80400  0.49800  Biso   1.000  C
  H25      1.0000 0.15120  0.81040  0.45470  Biso   1.000  H
  H26      1.0000 0.18850  0.78450  0.52560  Biso   1.000  H
  C26      1.0000 0.06000  0.90500  0.50000  Biso   1.000  C
  C27      1.0000 0.08700  0.95900  0.53400  Biso   1.000  C
  H27      1.0000 0.14660  0.93180  0.55750  Biso   1.000  H
  C28      1.0000 0.97700  0.94700  0.46700  Biso   1.000  C
  H28      1.0000 0.95920  0.91200  0.44410  Biso   1.000  H
  Cu2      1.0000 0.08260  0.76600  0.79200  Biso   1.000  Cu
  C29      1.0000 0.66100  0.82100  0.47600  Biso   1.000  C
  H29      1.0000 0.66230  0.86550  0.43430  Biso   1.000  H
  H30      1.0000 0.59850  0.81360  0.47900  Biso   1.000  H
  N13      1.0000 0.96500  0.86400  0.73330  Biso   1.000  N
  C30      1.0000 0.95300  0.95500  0.70080  Biso   1.000  C
  H31      1.0000 0.99700  0.98720  0.69920  Biso   1.000  H
  N14      1.0000 0.86900  0.99500  0.67080  Biso   1.000  N
  N15      1.0000 0.82900  0.92800  0.68480  Biso   1.000  N
  C31      1.0000 0.88900  0.84700  0.72340  Biso   1.000  C
  H32      1.0000 0.87820  0.78660  0.74120  Biso   1.000  H
  C32      1.0000 0.72500  0.95600  0.67800  Biso   1.000  C
  H33      1.0000 0.70280  0.92020  0.71610  Biso   1.000  H
  H34      1.0000 0.69350  0.02780  0.67040  Biso   1.000  H
  C33      1.0000 0.70300  0.92800  0.62200  Biso   1.000  C
  C34      1.0000 0.76900  0.91700  0.57900  Biso   1.000  C
  H35      1.0000 0.82430  0.93100  0.58310  Biso   1.000  H
  C35      1.0000 0.75400  0.88700  0.53000  Biso   1.000  C
  H36      1.0000 0.79930  0.87950  0.50060  Biso   1.000  H
  C36      1.0000 0.67300  0.86700  0.52500  Biso   1.000  C
  C37      1.0000 0.60700  0.87800  0.56800  Biso   1.000  C
  H37      1.0000 0.55180  0.86450  0.56390  Biso   1.000  H
  C38      1.0000 0.62200  0.90900  0.61700  Biso   1.000  C
  H38      1.0000 0.57670  0.91600  0.64640  Biso   1.000  H
  C39      1.0000 0.35200  0.86500  0.64000  Biso   1.000  C
  H39      1.0000 0.32150  0.90220  0.59760  Biso   1.000  H
  H40      1.0000 0.35450  0.91350  0.66000  Biso   1.000  H
  N16      1.0000 0.17800  0.77900  0.72390  Biso   1.000  N
  C40      1.0000 0.19300  0.74100  0.67770  Biso   1.000  C
  H41      1.0000 0.15870  0.70510  0.66780  Biso   1.000  H
  N17      1.0000 0.26200  0.76300  0.64760  Biso   1.000  N
  N18      1.0000 0.29000  0.81400  0.67530  Biso   1.000  N
  C41      1.0000 0.23900  0.82300  0.72240  Biso   1.000  C
  H42      1.0000 0.24430  0.85690  0.75050  Biso   1.000  H
  C42      1.0000 0.45400  0.80300  0.63400  Biso   1.000  C
  C43      1.0000 0.45600  0.85900  0.57200  Biso   1.000  C
  H43      1.0000 0.41970  0.92800  0.55790  Biso   1.000  H
  C44      1.0000 0.51200  0.81400  0.53100  Biso   1.000  C
  H44      1.0000 0.51370  0.85270  0.48920  Biso   1.000  H
  C45      1.0000 0.56700  0.71300  0.55200  Biso   1.000  C
  C46      1.0000 0.56500  0.65600  0.61400  Biso   1.000  C
  H45      1.0000 0.60140  0.58750  0.62780  Biso   1.000  H
  C47      1.0000 0.50900  0.70100  0.65500  Biso   1.000  C
  H46      1.0000 0.50730  0.66290  0.69650  Biso   1.000  H
  C48      1.0000 0.62500  0.65700  0.50800  Biso   1.000  C
  H47      1.0000 0.59970  0.69520  0.46400  Biso   1.000  H
  H48      1.0000 0.61870  0.59190  0.51750  Biso   1.000  H
  N19      1.0000 0.85800  0.59200  0.49390  Biso   1.000  N
  C49      1.0000 0.78600  0.56400  0.51840  Biso   1.000  C
  H49      1.0000 0.78900  0.49810  0.53620  Biso   1.000  H
  N20      1.0000 0.71100  0.64600  0.51340  Biso   1.000  N
  N21      1.0000 0.73500  0.72400  0.48570  Biso   1.000  N
  C50      1.0000 0.82600  0.69100  0.47370  Biso   1.000  C
  H50      1.0000 0.86210  0.73070  0.45430  Biso   1.000  H
  N22      1.0000 0.96020  0.39350  0.47680  Biso   1.000  N
  C51      1.0000 0.97100  0.37490  0.42110  Biso   1.000  C
  H51      1.0000 0.99510  0.40860  0.38580  Biso   1.000  H
  N23      1.0000 0.93950  0.29930  0.42520  Biso   1.000  N
  N24      1.0000 0.90990  0.27120  0.48350  Biso   1.000  N
  C52      1.0000 0.92300  0.32900  0.51540  Biso   1.000  C
  H52      1.0000 0.90810  0.32600  0.55690  Biso   1.000  H
  C53      1.0000 0.86900  0.19600  0.50200  Biso   1.000  C
  H53      1.0000 0.84880  0.18960  0.54530  Biso   1.000  H
  H54      1.0000 0.81150  0.21550  0.47440  Biso   1.000  H
  C54      1.0000 0.94000  0.09500  0.50000  Biso   1.000  C
  C55      1.0000 0.91300  0.04100  0.46600  Biso   1.000  C
  H55      1.0000 0.85340  0.06820  0.44250  Biso   1.000  H
  C56      1.0000 0.02300  0.05300  0.53300  Biso   1.000  C
  H56      1.0000 0.04080  0.08800  0.55590  Biso   1.000  H
  Cu3      1.0000 0.00000  0.50000  0.50000  Biso   1.000  Cu
  Cu4      1.0000 0.27460  0.78000  0.18687  Biso   1.000  Cu
  N25      1.0000 0.27930  0.76180  0.28290  Biso   1.000  N
  C57      1.0000 0.22310  0.72600  0.32220  Biso   1.000  C
  H57      1.0000 0.16820  0.71640  0.31080  Biso   1.000  H
  N26      1.0000 0.25800  0.70500  0.38040  Biso   1.000  N
  N27      1.0000 0.33600  0.72800  0.37720  Biso   1.000  N
  C58      1.0000 0.34890  0.76400  0.31690  Biso   1.000  C
  H58      1.0000 0.39890  0.78570  0.30110  Biso   1.000  H
  C59      1.0000 0.39900  0.71900  0.42890  Biso   1.000  C
  H59      1.0000 0.36290  0.75880  0.45510  Biso   1.000  H
  H60      1.0000 0.45040  0.74300  0.41230  Biso   1.000  H
  C60      1.0000 0.43900  0.61000  0.46720  Biso   1.000  C
  C61      1.0000 0.44300  0.55600  0.53170  Biso   1.000  C
  H61      1.0000 0.40770  0.59190  0.55790  Biso   1.000  H
  C62      1.0000 0.50800  0.54300  0.44100  Biso   1.000  C
  H62      1.0000 0.52080  0.57130  0.39970  Biso   1.000  H
  N28      1.0000 0.27950  0.78000  0.09870  Biso   1.000  N
  C63      1.0000 0.35510  0.77900  0.06410  Biso   1.000  C
  H63      1.0000 0.40460  0.79990  0.07100  Biso   1.000  H
  N29      1.0000 0.34700  0.74100  0.01770  Biso   1.000  N
  N30      1.0000 0.26700  0.72000  0.02360  Biso   1.000  N
  C64      1.0000 0.22500  0.74400  0.07370  Biso   1.000  C
  H64      1.0000 0.16780  0.73620  0.08850  Biso   1.000  H
  N31      1.0000 0.25390  0.92990  0.16090  Biso   1.000  N
  C65      1.0000 0.17040  0.00200  0.16060  Biso   1.000  C
  H65      1.0000 0.11370  0.99260  0.17490  Biso   1.000  H
  N32      1.0000 0.18190  0.08980  0.13660  Biso   1.000  N
  N33      1.0000 0.27250  0.07200  0.12200  Biso   1.000  N
  C66      1.0000 0.31700  0.97310  0.13710  Biso   1.000  C
  H66      1.0000 0.38120  0.93990  0.13180  Biso   1.000  H
  N34      1.0000 0.29350  0.62910  0.20930  Biso   1.000  N
  C67      1.0000 0.22750  0.58730  0.22100  Biso   1.000  C
  H67      1.0000 0.16160  0.62100  0.22090  Biso   1.000  H
  N35      1.0000 0.27100  0.48970  0.23280  Biso   1.000  N
  N36      1.0000 0.36390  0.47120  0.22840  Biso   1.000  N
  C68      1.0000 0.37780  0.55700  0.21390  Biso   1.000  C
  H68      1.0000 0.43690  0.56590  0.20790  Biso   1.000  H
  C69      1.0000 0.30500  0.15500  0.09400  Biso   1.000  C
  H69      1.0000 0.27030  0.19290  0.05220  Biso   1.000  H
  H70      1.0000 0.37280  0.12780  0.08720  Biso   1.000  H
  C70      1.0000 0.29150  0.22630  0.13200  Biso   1.000  C
  C71      1.0000 0.34900  0.19850  0.18580  Biso   1.000  C
  H71      1.0000 0.40210  0.13870  0.19660  Biso   1.000  H
  C72      1.0000 0.32880  0.25820  0.22380  Biso   1.000  C
  H72      1.0000 0.36820  0.23920  0.26060  Biso   1.000  H
  C73      1.0000 0.25110  0.34560  0.20790  Biso   1.000  C
  C74      1.0000 0.19360  0.37340  0.15410  Biso   1.000  C
  H73      1.0000 0.14050  0.43320  0.14320  Biso   1.000  H
  C75      1.0000 0.21380  0.31370  0.11610  Biso   1.000  C
  H74      1.0000 0.17440  0.33270  0.07930  Biso   1.000  H
  C76      1.0000 0.22700  0.40900  0.25100  Biso   1.000  C
  H75      1.0000 0.24980  0.36680  0.29470  Biso   1.000  H
  H76      1.0000 0.15710  0.44110  0.24990  Biso   1.000  H
  C77      1.0000 0.48700  0.54100  0.05050  Biso   1.000  C
  H77      1.0000 0.47680  0.56590  0.08460  Biso   1.000  H
  C78      1.0000 0.46600  0.56000  0.94000  Biso   1.000  C
  H78      1.0000 0.44020  0.60120  0.89950  Biso   1.000  H
  C79      1.0000 0.45400  0.60500  0.98840  Biso   1.000  C
  C80      1.0000 0.41900  0.71700  0.97300  Biso   1.000  C
  H79      1.0000 0.47150  0.73900  0.97790  Biso   1.000  H
  H80      1.0000 0.38970  0.75020  0.92970  Biso   1.000  H
  Cu5      1.0000 0.72540  0.22000  0.81313  Biso   1.000  Cu
  N37      1.0000 0.72070  0.23820  0.71710  Biso   1.000  N
  C81      1.0000 0.77690  0.27400  0.67780  Biso   1.000  C
  H81      1.0000 0.83180  0.28360  0.68920  Biso   1.000  H
  N38      1.0000 0.74200  0.29500  0.61960  Biso   1.000  N
  N39      1.0000 0.66400  0.27200  0.62280  Biso   1.000  N
  C82      1.0000 0.65110  0.23600  0.68310  Biso   1.000  C
  H82      1.0000 0.60110  0.21430  0.69890  Biso   1.000  H
  C83      1.0000 0.60100  0.28100  0.57110  Biso   1.000  C
  H83      1.0000 0.63710  0.24120  0.54490  Biso   1.000  H
  H84      1.0000 0.54960  0.25700  0.58770  Biso   1.000  H
  C84      1.0000 0.56100  0.39000  0.53280  Biso   1.000  C
  C85      1.0000 0.55700  0.44400  0.46830  Biso   1.000  C
  H85      1.0000 0.59230  0.40810  0.44210  Biso   1.000  H
  C86      1.0000 0.49200  0.45700  0.55900  Biso   1.000  C
  H86      1.0000 0.47920  0.42870  0.60030  Biso   1.000  H
  N40      1.0000 0.72050  0.22000  0.90130  Biso   1.000  N
  C87      1.0000 0.64490  0.22100  0.93590  Biso   1.000  C
  H87      1.0000 0.59540  0.20010  0.92900  Biso   1.000  H
  N41      1.0000 0.65300  0.25900  0.98230  Biso   1.000  N
  N42      1.0000 0.73300  0.28000  0.97640  Biso   1.000  N
  C88      1.0000 0.77500  0.25600  0.92630  Biso   1.000  C
  H88      1.0000 0.83220  0.26380  0.91150  Biso   1.000  H
  N43      1.0000 0.74610  0.07010  0.83910  Biso   1.000  N
  C89      1.0000 0.82960  0.99800  0.83940  Biso   1.000  C
  H89      1.0000 0.88630  0.00740  0.82510  Biso   1.000  H
  N44      1.0000 0.81810  0.91020  0.86340  Biso   1.000  N
  N45      1.0000 0.72750  0.92800  0.87800  Biso   1.000  N
  C90      1.0000 0.68300  0.02690  0.86290  Biso   1.000  C
  H90      1.0000 0.61880  0.06010  0.86820  Biso   1.000  H
  N46      1.0000 0.70650  0.37090  0.79070  Biso   1.000  N
  C91      1.0000 0.77250  0.41270  0.77900  Biso   1.000  C
  H91      1.0000 0.83840  0.37900  0.77910  Biso   1.000  H
  N47      1.0000 0.72900  0.51030  0.76720  Biso   1.000  N
  N48      1.0000 0.63610  0.52880  0.77160  Biso   1.000  N
  C92      1.0000 0.62220  0.44300  0.78610  Biso   1.000  C
  H92      1.0000 0.56310  0.43410  0.79210  Biso   1.000  H
  C93      1.0000 0.69500  0.84500  0.90600  Biso   1.000  C
  H93      1.0000 0.72970  0.80710  0.94780  Biso   1.000  H
  H94      1.0000 0.62720  0.87220  0.91280  Biso   1.000  H
  C94      1.0000 0.70850  0.77370  0.86800  Biso   1.000  C
  C95      1.0000 0.65100  0.80150  0.81420  Biso   1.000  C
  H95      1.0000 0.59790  0.86130  0.80340  Biso   1.000  H
  C96      1.0000 0.67120  0.74180  0.77620  Biso   1.000  C
  H96      1.0000 0.63180  0.76080  0.73940  Biso   1.000  H
  C97      1.0000 0.74890  0.65440  0.79210  Biso   1.000  C
  C98      1.0000 0.80640  0.62660  0.84590  Biso   1.000  C
  H97      1.0000 0.85950  0.56680  0.85680  Biso   1.000  H
  C99      1.0000 0.78620  0.68630  0.88390  Biso   1.000  C
  H98      1.0000 0.82560  0.66730  0.92070  Biso   1.000  H
  C100     1.0000 0.77300  0.59100  0.74900  Biso   1.000  C
  H99      1.0000 0.75020  0.63320  0.70530  Biso   1.000  H
  H100     1.0000 0.84290  0.55890  0.75010  Biso   1.000  H
  C101     1.0000 0.51300  0.45900  0.94950  Biso   1.000  C
  H101     1.0000 0.52320  0.43410  0.91540  Biso   1.000  H
  C102     1.0000 0.53400  0.44000  0.06000  Biso   1.000  C
  H102     1.0000 0.55980  0.39880  0.10050  Biso   1.000  H
  C103     1.0000 0.54600  0.39500  0.01160  Biso   1.000  C
  C104     1.0000 0.58100  0.28300  0.02700  Biso   1.000  C
  H103     1.0000 0.52850  0.26100  0.02210  Biso   1.000  H
  H104     1.0000 0.61030  0.24980  0.07030  Biso   1.000  H
