data_image0
_cell_length_a       16.861
_cell_length_b       24.431
_cell_length_c       26.723
_cell_angle_alpha    90
_cell_angle_beta     90
_cell_angle_gamma    90

_symmetry_space_group_name_H-M    "P 1"
_symmetry_int_tables_number       1

loop_
  _symmetry_equiv_pos_as_xyz
  'x, y, z'

loop_
  _atom_site_label
  _atom_site_occupancy
  _atom_site_fract_x
  _atom_site_fract_y
  _atom_site_fract_z
  _atom_site_thermal_displace_type
  _atom_site_B_iso_or_equiv
  _atom_site_type_symbol
  Ag1      1.0000 0.32376  0.47119  0.46985  Biso   1.000  Ag
  Ag2      1.0000 0.46852  0.31308  0.44930  Biso   1.000  Ag
  Ag3      1.0000 0.45057  0.40470  0.38494  Biso   1.000  Ag
  Ag4      1.0000 0.04632  0.39233  0.39154  Biso   1.000  Ag
  Ag5      1.0000 0.49165  0.42136  0.48859  Biso   1.000  Ag
  Ag6      1.0000 0.02865  0.30072  0.46609  Biso   1.000  Ag
  Ag7      1.0000 0.98880  0.40942  0.49546  Biso   1.000  Ag
  Ag8      1.0000 0.12831  0.47403  0.45809  Biso   1.000  Ag
  Br1      1.0000 0.16484  0.28225  0.56301  Biso   1.000  Br
  Br2      1.0000 0.34978  0.28691  0.55508  Biso   1.000  Br
  C1       1.0000 0.10520  0.38220  0.46380  Biso   1.000  C
  C2       1.0000 0.17090  0.36920  0.47750  Biso   1.000  C
  C3       1.0000 0.24720  0.35000  0.49430  Biso   1.000  C
  C4       1.0000 0.31720  0.37280  0.47090  Biso   1.000  C
  C5       1.0000 0.37990  0.38600  0.45210  Biso   1.000  C
  C6       1.0000 0.25290  0.31240  0.53110  Biso   1.000  C
  O1       1.0000 0.55430  0.29610  0.51850  Biso   1.000  O
  O2       1.0000 0.58530  0.38250  0.53970  Biso   1.000  O
  C7       1.0000 0.59240  0.33140  0.54080  Biso   1.000  C
  C8       1.0000 0.66280  0.31160  0.57320  Biso   1.000  C
  F1       1.0000 0.67010  0.25890  0.57390  Biso   1.000  F
  F2       1.0000 0.65610  0.32790  0.61840  Biso   1.000  F
  F3       1.0000 0.72950  0.33120  0.55650  Biso   1.000  F
  O3       1.0000 0.55840  0.29520  0.38300  Biso   1.000  O
  O4       1.0000 0.52490  0.35630  0.32450  Biso   1.000  O
  C9       1.0000 0.56080  0.31490  0.34170  Biso   1.000  C
  C10      1.0000 0.62200  0.28690  0.30570  Biso   1.000  C
  F4       1.0000 0.61390  0.30110  0.25930  Biso   1.000  F
  F5       1.0000 0.61740  0.23430  0.30840  Biso   1.000  F
  F6       1.0000 0.69340  0.29980  0.31930  Biso   1.000  F
  O5       1.0000 0.27130  0.53490  0.52020  Biso   1.000  O
  O6       1.0000 0.14060  0.54710  0.51310  Biso   1.000  O
  C11      1.0000 0.20800  0.55800  0.52870  Biso   1.000  C
  C12      1.0000 0.21460  0.60580  0.56750  Biso   1.000  C
  F7       1.0000 0.27740  0.63520  0.56090  Biso   1.000  F
  F8       1.0000 0.15420  0.63730  0.56720  Biso   1.000  F
  F9       1.0000 0.22170  0.58660  0.61280  Biso   1.000  F
  O7       1.0000 0.95530  0.28450  0.54260  Biso   1.000  O
  O8       1.0000 0.92140  0.37000  0.56380  Biso   1.000  O
  C13      1.0000 0.92520  0.32010  0.57040  Biso   1.000  C
  C14      1.0000 0.89360  0.29980  0.62200  Biso   1.000  C
  F10      1.0000 0.83940  0.33210  0.63950  Biso   1.000  F
  F11      1.0000 0.86350  0.25110  0.61930  Biso   1.000  F
  F12      1.0000 0.95070  0.29790  0.65410  Biso   1.000  F
  O9       1.0000 0.97840  0.26610  0.39050  Biso   1.000  O
  O10      1.0000 0.99180  0.33440  0.33610  Biso   1.000  O
  C15      1.0000 0.97340  0.28760  0.34870  Biso   1.000  C
  C16      1.0000 0.93060  0.25300  0.30930  Biso   1.000  C
  F13      1.0000 0.94810  0.20210  0.31460  Biso   1.000  F
  F14      1.0000 0.94330  0.26640  0.26400  Biso   1.000  F
  F15      1.0000 0.85400  0.25560  0.31620  Biso   1.000  F
  Ag9      1.0000 0.82376  0.02881  0.53015  Biso   1.000  Ag
  Ag10     1.0000 0.96852  0.18692  0.55070  Biso   1.000  Ag
  Ag11     1.0000 0.95057  0.09530  0.61506  Biso   1.000  Ag
  Ag12     1.0000 0.54632  0.10767  0.60846  Biso   1.000  Ag
  Ag13     1.0000 0.99165  0.07864  0.51141  Biso   1.000  Ag
  Ag14     1.0000 0.52865  0.19928  0.53391  Biso   1.000  Ag
  Ag15     1.0000 0.48880  0.09058  0.50454  Biso   1.000  Ag
  Ag16     1.0000 0.62831  0.02597  0.54191  Biso   1.000  Ag
  Br3      1.0000 0.66484  0.21775  0.43699  Biso   1.000  Br
  Br4      1.0000 0.84978  0.21309  0.44492  Biso   1.000  Br
  C17      1.0000 0.60520  0.11780  0.53620  Biso   1.000  C
  C18      1.0000 0.67090  0.13080  0.52250  Biso   1.000  C
  C19      1.0000 0.74720  0.15000  0.50570  Biso   1.000  C
  C20      1.0000 0.81720  0.12720  0.52910  Biso   1.000  C
  C21      1.0000 0.87990  0.11400  0.54790  Biso   1.000  C
  C22      1.0000 0.75290  0.18760  0.46890  Biso   1.000  C
  O11      1.0000 0.05430  0.20390  0.48150  Biso   1.000  O
  O12      1.0000 0.08530  0.11750  0.46030  Biso   1.000  O
  C23      1.0000 0.09240  0.16860  0.45920  Biso   1.000  C
  C24      1.0000 0.16280  0.18840  0.42680  Biso   1.000  C
  F16      1.0000 0.17010  0.24110  0.42610  Biso   1.000  F
  F17      1.0000 0.15610  0.17210  0.38160  Biso   1.000  F
  F18      1.0000 0.22950  0.16880  0.44350  Biso   1.000  F
  O13      1.0000 0.05840  0.20480  0.61700  Biso   1.000  O
  O14      1.0000 0.02490  0.14370  0.67550  Biso   1.000  O
  C25      1.0000 0.06080  0.18510  0.65830  Biso   1.000  C
  C26      1.0000 0.12200  0.21310  0.69430  Biso   1.000  C
  F19      1.0000 0.11390  0.19890  0.74070  Biso   1.000  F
  F20      1.0000 0.11740  0.26570  0.69160  Biso   1.000  F
  F21      1.0000 0.19340  0.20020  0.68070  Biso   1.000  F
  O15      1.0000 0.77130  0.96510  0.47980  Biso   1.000  O
  O16      1.0000 0.64060  0.95290  0.48690  Biso   1.000  O
  C27      1.0000 0.70800  0.94200  0.47130  Biso   1.000  C
  C28      1.0000 0.71460  0.89420  0.43250  Biso   1.000  C
  F22      1.0000 0.77740  0.86480  0.43910  Biso   1.000  F
  F23      1.0000 0.65420  0.86270  0.43280  Biso   1.000  F
  F24      1.0000 0.72170  0.91340  0.38720  Biso   1.000  F
  O17      1.0000 0.45530  0.21550  0.45740  Biso   1.000  O
  O18      1.0000 0.42140  0.13000  0.43620  Biso   1.000  O
  C29      1.0000 0.42520  0.17990  0.42960  Biso   1.000  C
  C30      1.0000 0.39360  0.20020  0.37800  Biso   1.000  C
  F25      1.0000 0.33940  0.16790  0.36050  Biso   1.000  F
  F26      1.0000 0.36350  0.24890  0.38070  Biso   1.000  F
  F27      1.0000 0.45070  0.20210  0.34590  Biso   1.000  F
  O19      1.0000 0.47840  0.23390  0.60950  Biso   1.000  O
  O20      1.0000 0.49180  0.16560  0.66390  Biso   1.000  O
  C31      1.0000 0.47340  0.21240  0.65130  Biso   1.000  C
  C32      1.0000 0.43060  0.24700  0.69070  Biso   1.000  C
  F28      1.0000 0.44810  0.29790  0.68540  Biso   1.000  F
  F29      1.0000 0.44330  0.23360  0.73600  Biso   1.000  F
  F30      1.0000 0.35400  0.24440  0.68380  Biso   1.000  F
  Ag17     1.0000 0.82376  0.47119  0.03015  Biso   1.000  Ag
  Ag18     1.0000 0.96852  0.31308  0.05070  Biso   1.000  Ag
  Ag19     1.0000 0.95057  0.40470  0.11506  Biso   1.000  Ag
  Ag20     1.0000 0.54632  0.39233  0.10846  Biso   1.000  Ag
  Ag21     1.0000 0.99165  0.42136  0.01141  Biso   1.000  Ag
  Ag22     1.0000 0.52865  0.30072  0.03391  Biso   1.000  Ag
  Ag23     1.0000 0.48880  0.40942  0.00454  Biso   1.000  Ag
  Ag24     1.0000 0.62831  0.47403  0.04191  Biso   1.000  Ag
  Br5      1.0000 0.66484  0.28225  0.93699  Biso   1.000  Br
  Br6      1.0000 0.84978  0.28691  0.94492  Biso   1.000  Br
  C33      1.0000 0.60520  0.38220  0.03620  Biso   1.000  C
  C34      1.0000 0.67090  0.36920  0.02250  Biso   1.000  C
  C35      1.0000 0.74720  0.35000  0.00570  Biso   1.000  C
  C36      1.0000 0.81720  0.37280  0.02910  Biso   1.000  C
  C37      1.0000 0.87990  0.38600  0.04790  Biso   1.000  C
  C38      1.0000 0.75290  0.31240  0.96890  Biso   1.000  C
  O21      1.0000 0.05430  0.29610  0.98150  Biso   1.000  O
  O22      1.0000 0.08530  0.38250  0.96030  Biso   1.000  O
  C39      1.0000 0.09240  0.33140  0.95920  Biso   1.000  C
  C40      1.0000 0.16280  0.31160  0.92680  Biso   1.000  C
  F31      1.0000 0.17010  0.25890  0.92610  Biso   1.000  F
  F32      1.0000 0.15610  0.32790  0.88160  Biso   1.000  F
  F33      1.0000 0.22950  0.33120  0.94350  Biso   1.000  F
  O23      1.0000 0.05840  0.29520  0.11700  Biso   1.000  O
  O24      1.0000 0.02490  0.35630  0.17550  Biso   1.000  O
  C41      1.0000 0.06080  0.31490  0.15830  Biso   1.000  C
  C42      1.0000 0.12200  0.28690  0.19430  Biso   1.000  C
  F34      1.0000 0.11390  0.30110  0.24070  Biso   1.000  F
  F35      1.0000 0.11740  0.23430  0.19160  Biso   1.000  F
  F36      1.0000 0.19340  0.29980  0.18070  Biso   1.000  F
  O25      1.0000 0.77130  0.53490  0.97980  Biso   1.000  O
  O26      1.0000 0.64060  0.54710  0.98690  Biso   1.000  O
  C43      1.0000 0.70800  0.55800  0.97130  Biso   1.000  C
  C44      1.0000 0.71460  0.60580  0.93250  Biso   1.000  C
  F37      1.0000 0.77740  0.63520  0.93910  Biso   1.000  F
  F38      1.0000 0.65420  0.63730  0.93280  Biso   1.000  F
  F39      1.0000 0.72170  0.58660  0.88720  Biso   1.000  F
  O27      1.0000 0.45530  0.28450  0.95740  Biso   1.000  O
  O28      1.0000 0.42140  0.37000  0.93620  Biso   1.000  O
  C45      1.0000 0.42520  0.32010  0.92960  Biso   1.000  C
  C46      1.0000 0.39360  0.29980  0.87800  Biso   1.000  C
  F40      1.0000 0.33940  0.33210  0.86050  Biso   1.000  F
  F41      1.0000 0.36350  0.25110  0.88070  Biso   1.000  F
  F42      1.0000 0.45070  0.29790  0.84590  Biso   1.000  F
  O29      1.0000 0.47840  0.26610  0.10950  Biso   1.000  O
  O30      1.0000 0.49180  0.33440  0.16390  Biso   1.000  O
  C47      1.0000 0.47340  0.28760  0.15130  Biso   1.000  C
  C48      1.0000 0.43060  0.25300  0.19070  Biso   1.000  C
  F43      1.0000 0.44810  0.20210  0.18540  Biso   1.000  F
  F44      1.0000 0.44330  0.26640  0.23600  Biso   1.000  F
  F45      1.0000 0.35400  0.25560  0.18380  Biso   1.000  F
  Ag25     1.0000 0.32376  0.02881  0.96985  Biso   1.000  Ag
  Ag26     1.0000 0.46852  0.18692  0.94930  Biso   1.000  Ag
  Ag27     1.0000 0.45057  0.09530  0.88494  Biso   1.000  Ag
  Ag28     1.0000 0.04632  0.10767  0.89154  Biso   1.000  Ag
  Ag29     1.0000 0.49165  0.07864  0.98859  Biso   1.000  Ag
  Ag30     1.0000 0.02865  0.19928  0.96609  Biso   1.000  Ag
  Ag31     1.0000 0.98880  0.09058  0.99546  Biso   1.000  Ag
  Ag32     1.0000 0.12831  0.02597  0.95809  Biso   1.000  Ag
  Br7      1.0000 0.16484  0.21775  0.06301  Biso   1.000  Br
  Br8      1.0000 0.34978  0.21309  0.05508  Biso   1.000  Br
  C49      1.0000 0.10520  0.11780  0.96380  Biso   1.000  C
  C50      1.0000 0.17090  0.13080  0.97750  Biso   1.000  C
  C51      1.0000 0.24720  0.15000  0.99430  Biso   1.000  C
  C52      1.0000 0.31720  0.12720  0.97090  Biso   1.000  C
  C53      1.0000 0.37990  0.11400  0.95210  Biso   1.000  C
  C54      1.0000 0.25290  0.18760  0.03110  Biso   1.000  C
  O31      1.0000 0.55430  0.20390  0.01850  Biso   1.000  O
  O32      1.0000 0.58530  0.11750  0.03970  Biso   1.000  O
  C55      1.0000 0.59240  0.16860  0.04080  Biso   1.000  C
  C56      1.0000 0.66280  0.18840  0.07320  Biso   1.000  C
  F46      1.0000 0.67010  0.24110  0.07390  Biso   1.000  F
  F47      1.0000 0.65610  0.17210  0.11840  Biso   1.000  F
  F48      1.0000 0.72950  0.16880  0.05650  Biso   1.000  F
  O33      1.0000 0.55840  0.20480  0.88300  Biso   1.000  O
  O34      1.0000 0.52490  0.14370  0.82450  Biso   1.000  O
  C57      1.0000 0.56080  0.18510  0.84170  Biso   1.000  C
  C58      1.0000 0.62200  0.21310  0.80570  Biso   1.000  C
  F49      1.0000 0.61390  0.19890  0.75930  Biso   1.000  F
  F50      1.0000 0.61740  0.26570  0.80840  Biso   1.000  F
  F51      1.0000 0.69340  0.20020  0.81930  Biso   1.000  F
  O35      1.0000 0.27130  0.96510  0.02020  Biso   1.000  O
  O36      1.0000 0.14060  0.95290  0.01310  Biso   1.000  O
  C59      1.0000 0.20800  0.94200  0.02870  Biso   1.000  C
  C60      1.0000 0.21460  0.89420  0.06750  Biso   1.000  C
  F52      1.0000 0.27740  0.86480  0.06090  Biso   1.000  F
  F53      1.0000 0.15420  0.86270  0.06720  Biso   1.000  F
  F54      1.0000 0.22170  0.91340  0.11280  Biso   1.000  F
  O37      1.0000 0.95530  0.21550  0.04260  Biso   1.000  O
  O38      1.0000 0.92140  0.13000  0.06380  Biso   1.000  O
  C61      1.0000 0.92520  0.17990  0.07040  Biso   1.000  C
  C62      1.0000 0.89360  0.20020  0.12200  Biso   1.000  C
  F55      1.0000 0.83940  0.16790  0.13950  Biso   1.000  F
  F56      1.0000 0.86350  0.24890  0.11930  Biso   1.000  F
  F57      1.0000 0.95070  0.20210  0.15410  Biso   1.000  F
  O39      1.0000 0.97840  0.23390  0.89050  Biso   1.000  O
  O40      1.0000 0.99180  0.16560  0.83610  Biso   1.000  O
  C63      1.0000 0.97340  0.21240  0.84870  Biso   1.000  C
  C64      1.0000 0.93060  0.24700  0.80930  Biso   1.000  C
  F58      1.0000 0.94810  0.29790  0.81460  Biso   1.000  F
  F59      1.0000 0.94330  0.23360  0.76400  Biso   1.000  F
  F60      1.0000 0.85400  0.24440  0.81620  Biso   1.000  F
  Ag33     1.0000 0.17624  0.52881  0.96985  Biso   1.000  Ag
  Ag34     1.0000 0.03148  0.68692  0.94930  Biso   1.000  Ag
  Ag35     1.0000 0.04943  0.59530  0.88494  Biso   1.000  Ag
  Ag36     1.0000 0.45368  0.60767  0.89154  Biso   1.000  Ag
  Ag37     1.0000 0.00835  0.57864  0.98859  Biso   1.000  Ag
  Ag38     1.0000 0.47135  0.69928  0.96609  Biso   1.000  Ag
  Ag39     1.0000 0.51120  0.59058  0.99546  Biso   1.000  Ag
  Ag40     1.0000 0.37169  0.52597  0.95809  Biso   1.000  Ag
  Br9      1.0000 0.33516  0.71775  0.06301  Biso   1.000  Br
  Br10     1.0000 0.15022  0.71309  0.05508  Biso   1.000  Br
  C65      1.0000 0.39480  0.61780  0.96380  Biso   1.000  C
  C66      1.0000 0.32910  0.63080  0.97750  Biso   1.000  C
  C67      1.0000 0.25280  0.65000  0.99430  Biso   1.000  C
  C68      1.0000 0.18280  0.62720  0.97090  Biso   1.000  C
  C69      1.0000 0.12010  0.61400  0.95210  Biso   1.000  C
  C70      1.0000 0.24710  0.68760  0.03110  Biso   1.000  C
  O41      1.0000 0.94570  0.70390  0.01850  Biso   1.000  O
  O42      1.0000 0.91470  0.61750  0.03970  Biso   1.000  O
  C71      1.0000 0.90760  0.66860  0.04080  Biso   1.000  C
  C72      1.0000 0.83720  0.68840  0.07320  Biso   1.000  C
  F61      1.0000 0.82990  0.74110  0.07390  Biso   1.000  F
  F62      1.0000 0.84390  0.67210  0.11840  Biso   1.000  F
  F63      1.0000 0.77050  0.66880  0.05650  Biso   1.000  F
  O43      1.0000 0.94160  0.70480  0.88300  Biso   1.000  O
  O44      1.0000 0.97510  0.64370  0.82450  Biso   1.000  O
  C73      1.0000 0.93920  0.68510  0.84170  Biso   1.000  C
  C74      1.0000 0.87800  0.71310  0.80570  Biso   1.000  C
  F64      1.0000 0.88610  0.69890  0.75930  Biso   1.000  F
  F65      1.0000 0.88260  0.76570  0.80840  Biso   1.000  F
  F66      1.0000 0.80660  0.70020  0.81930  Biso   1.000  F
  O45      1.0000 0.22870  0.46510  0.02020  Biso   1.000  O
  O46      1.0000 0.35940  0.45290  0.01310  Biso   1.000  O
  C75      1.0000 0.29200  0.44200  0.02870  Biso   1.000  C
  C76      1.0000 0.28540  0.39420  0.06750  Biso   1.000  C
  F67      1.0000 0.22260  0.36480  0.06090  Biso   1.000  F
  F68      1.0000 0.34580  0.36270  0.06720  Biso   1.000  F
  F69      1.0000 0.27830  0.41340  0.11280  Biso   1.000  F
  O47      1.0000 0.54470  0.71550  0.04260  Biso   1.000  O
  O48      1.0000 0.57860  0.63000  0.06380  Biso   1.000  O
  C77      1.0000 0.57480  0.67990  0.07040  Biso   1.000  C
  C78      1.0000 0.60640  0.70020  0.12200  Biso   1.000  C
  F70      1.0000 0.66060  0.66790  0.13950  Biso   1.000  F
  F71      1.0000 0.63650  0.74890  0.11930  Biso   1.000  F
  F72      1.0000 0.54930  0.70210  0.15410  Biso   1.000  F
  O49      1.0000 0.52160  0.73390  0.89050  Biso   1.000  O
  O50      1.0000 0.50820  0.66560  0.83610  Biso   1.000  O
  C79      1.0000 0.52660  0.71240  0.84870  Biso   1.000  C
  C80      1.0000 0.56940  0.74700  0.80930  Biso   1.000  C
  F73      1.0000 0.55190  0.79790  0.81460  Biso   1.000  F
  F74      1.0000 0.55670  0.73360  0.76400  Biso   1.000  F
  F75      1.0000 0.64600  0.74440  0.81620  Biso   1.000  F
  Ag41     1.0000 0.67624  0.97119  0.03015  Biso   1.000  Ag
  Ag42     1.0000 0.53148  0.81308  0.05070  Biso   1.000  Ag
  Ag43     1.0000 0.54943  0.90470  0.11506  Biso   1.000  Ag
  Ag44     1.0000 0.95368  0.89233  0.10846  Biso   1.000  Ag
  Ag45     1.0000 0.50835  0.92136  0.01141  Biso   1.000  Ag
  Ag46     1.0000 0.97135  0.80072  0.03391  Biso   1.000  Ag
  Ag47     1.0000 0.01120  0.90942  0.00454  Biso   1.000  Ag
  Ag48     1.0000 0.87169  0.97403  0.04191  Biso   1.000  Ag
  Br11     1.0000 0.83516  0.78225  0.93699  Biso   1.000  Br
  Br12     1.0000 0.65022  0.78691  0.94492  Biso   1.000  Br
  C81      1.0000 0.89480  0.88220  0.03620  Biso   1.000  C
  C82      1.0000 0.82910  0.86920  0.02250  Biso   1.000  C
  C83      1.0000 0.75280  0.85000  0.00570  Biso   1.000  C
  C84      1.0000 0.68280  0.87280  0.02910  Biso   1.000  C
  C85      1.0000 0.62010  0.88600  0.04790  Biso   1.000  C
  C86      1.0000 0.74710  0.81240  0.96890  Biso   1.000  C
  O51      1.0000 0.44570  0.79610  0.98150  Biso   1.000  O
  O52      1.0000 0.41470  0.88250  0.96030  Biso   1.000  O
  C87      1.0000 0.40760  0.83140  0.95920  Biso   1.000  C
  C88      1.0000 0.33720  0.81160  0.92680  Biso   1.000  C
  F76      1.0000 0.32990  0.75890  0.92610  Biso   1.000  F
  F77      1.0000 0.34390  0.82790  0.88160  Biso   1.000  F
  F78      1.0000 0.27050  0.83120  0.94350  Biso   1.000  F
  O53      1.0000 0.44160  0.79520  0.11700  Biso   1.000  O
  O54      1.0000 0.47510  0.85630  0.17550  Biso   1.000  O
  C89      1.0000 0.43920  0.81490  0.15830  Biso   1.000  C
  C90      1.0000 0.37800  0.78690  0.19430  Biso   1.000  C
  F79      1.0000 0.38610  0.80110  0.24070  Biso   1.000  F
  F80      1.0000 0.38260  0.73430  0.19160  Biso   1.000  F
  F81      1.0000 0.30660  0.79980  0.18070  Biso   1.000  F
  O55      1.0000 0.72870  0.03490  0.97980  Biso   1.000  O
  O56      1.0000 0.85940  0.04710  0.98690  Biso   1.000  O
  C91      1.0000 0.79200  0.05800  0.97130  Biso   1.000  C
  C92      1.0000 0.78540  0.10580  0.93250  Biso   1.000  C
  F82      1.0000 0.72260  0.13520  0.93910  Biso   1.000  F
  F83      1.0000 0.84580  0.13730  0.93280  Biso   1.000  F
  F84      1.0000 0.77830  0.08660  0.88720  Biso   1.000  F
  O57      1.0000 0.04470  0.78450  0.95740  Biso   1.000  O
  O58      1.0000 0.07860  0.87000  0.93620  Biso   1.000  O
  C93      1.0000 0.07480  0.82010  0.92960  Biso   1.000  C
  C94      1.0000 0.10640  0.79980  0.87800  Biso   1.000  C
  F85      1.0000 0.16060  0.83210  0.86050  Biso   1.000  F
  F86      1.0000 0.13650  0.75110  0.88070  Biso   1.000  F
  F87      1.0000 0.04930  0.79790  0.84590  Biso   1.000  F
  O59      1.0000 0.02160  0.76610  0.10950  Biso   1.000  O
  O60      1.0000 0.00820  0.83440  0.16390  Biso   1.000  O
  C95      1.0000 0.02660  0.78760  0.15130  Biso   1.000  C
  C96      1.0000 0.06940  0.75300  0.19070  Biso   1.000  C
  F88      1.0000 0.05190  0.70210  0.18540  Biso   1.000  F
  F89      1.0000 0.05670  0.76640  0.23600  Biso   1.000  F
  F90      1.0000 0.14600  0.75560  0.18380  Biso   1.000  F
  Ag49     1.0000 0.67624  0.52881  0.53015  Biso   1.000  Ag
  Ag50     1.0000 0.53148  0.68692  0.55070  Biso   1.000  Ag
  Ag51     1.0000 0.54943  0.59530  0.61506  Biso   1.000  Ag
  Ag52     1.0000 0.95368  0.60767  0.60846  Biso   1.000  Ag
  Ag53     1.0000 0.50835  0.57864  0.51141  Biso   1.000  Ag
  Ag54     1.0000 0.97135  0.69928  0.53391  Biso   1.000  Ag
  Ag55     1.0000 0.01120  0.59058  0.50454  Biso   1.000  Ag
  Ag56     1.0000 0.87169  0.52597  0.54191  Biso   1.000  Ag
  Br13     1.0000 0.83516  0.71775  0.43699  Biso   1.000  Br
  Br14     1.0000 0.65022  0.71309  0.44492  Biso   1.000  Br
  C97      1.0000 0.89480  0.61780  0.53620  Biso   1.000  C
  C98      1.0000 0.82910  0.63080  0.52250  Biso   1.000  C
  C99      1.0000 0.75280  0.65000  0.50570  Biso   1.000  C
  C100     1.0000 0.68280  0.62720  0.52910  Biso   1.000  C
  C101     1.0000 0.62010  0.61400  0.54790  Biso   1.000  C
  C102     1.0000 0.74710  0.68760  0.46890  Biso   1.000  C
  O61      1.0000 0.44570  0.70390  0.48150  Biso   1.000  O
  O62      1.0000 0.41470  0.61750  0.46030  Biso   1.000  O
  C103     1.0000 0.40760  0.66860  0.45920  Biso   1.000  C
  C104     1.0000 0.33720  0.68840  0.42680  Biso   1.000  C
  F91      1.0000 0.32990  0.74110  0.42610  Biso   1.000  F
  F92      1.0000 0.34390  0.67210  0.38160  Biso   1.000  F
  F93      1.0000 0.27050  0.66880  0.44350  Biso   1.000  F
  O63      1.0000 0.44160  0.70480  0.61700  Biso   1.000  O
  O64      1.0000 0.47510  0.64370  0.67550  Biso   1.000  O
  C105     1.0000 0.43920  0.68510  0.65830  Biso   1.000  C
  C106     1.0000 0.37800  0.71310  0.69430  Biso   1.000  C
  F94      1.0000 0.38610  0.69890  0.74070  Biso   1.000  F
  F95      1.0000 0.38260  0.76570  0.69160  Biso   1.000  F
  F96      1.0000 0.30660  0.70020  0.68070  Biso   1.000  F
  O65      1.0000 0.72870  0.46510  0.47980  Biso   1.000  O
  O66      1.0000 0.85940  0.45290  0.48690  Biso   1.000  O
  C107     1.0000 0.79200  0.44200  0.47130  Biso   1.000  C
  C108     1.0000 0.78540  0.39420  0.43250  Biso   1.000  C
  F97      1.0000 0.72260  0.36480  0.43910  Biso   1.000  F
  F98      1.0000 0.84580  0.36270  0.43280  Biso   1.000  F
  F99      1.0000 0.77830  0.41340  0.38720  Biso   1.000  F
  O67      1.0000 0.04470  0.71550  0.45740  Biso   1.000  O
  O68      1.0000 0.07860  0.63000  0.43620  Biso   1.000  O
  C109     1.0000 0.07480  0.67990  0.42960  Biso   1.000  C
  C110     1.0000 0.10640  0.70020  0.37800  Biso   1.000  C
  F100     1.0000 0.16060  0.66790  0.36050  Biso   1.000  F
  F101     1.0000 0.13650  0.74890  0.38070  Biso   1.000  F
  F102     1.0000 0.04930  0.70210  0.34590  Biso   1.000  F
  O69      1.0000 0.02160  0.73390  0.60950  Biso   1.000  O
  O70      1.0000 0.00820  0.66560  0.66390  Biso   1.000  O
  C111     1.0000 0.02660  0.71240  0.65130  Biso   1.000  C
  C112     1.0000 0.06940  0.74700  0.69070  Biso   1.000  C
  F103     1.0000 0.05190  0.79790  0.68540  Biso   1.000  F
  F104     1.0000 0.05670  0.73360  0.73600  Biso   1.000  F
  F105     1.0000 0.14600  0.74440  0.68380  Biso   1.000  F
  Ag57     1.0000 0.17624  0.97119  0.46985  Biso   1.000  Ag
  Ag58     1.0000 0.03148  0.81308  0.44930  Biso   1.000  Ag
  Ag59     1.0000 0.04943  0.90470  0.38494  Biso   1.000  Ag
  Ag60     1.0000 0.45368  0.89233  0.39154  Biso   1.000  Ag
  Ag61     1.0000 0.00835  0.92136  0.48859  Biso   1.000  Ag
  Ag62     1.0000 0.47135  0.80072  0.46609  Biso   1.000  Ag
  Ag63     1.0000 0.51120  0.90942  0.49546  Biso   1.000  Ag
  Ag64     1.0000 0.37169  0.97403  0.45809  Biso   1.000  Ag
  Br15     1.0000 0.33516  0.78225  0.56301  Biso   1.000  Br
  Br16     1.0000 0.15022  0.78691  0.55508  Biso   1.000  Br
  C113     1.0000 0.39480  0.88220  0.46380  Biso   1.000  C
  C114     1.0000 0.32910  0.86920  0.47750  Biso   1.000  C
  C115     1.0000 0.25280  0.85000  0.49430  Biso   1.000  C
  C116     1.0000 0.18280  0.87280  0.47090  Biso   1.000  C
  C117     1.0000 0.12010  0.88600  0.45210  Biso   1.000  C
  C118     1.0000 0.24710  0.81240  0.53110  Biso   1.000  C
  O71      1.0000 0.94570  0.79610  0.51850  Biso   1.000  O
  O72      1.0000 0.91470  0.88250  0.53970  Biso   1.000  O
  C119     1.0000 0.90760  0.83140  0.54080  Biso   1.000  C
  C120     1.0000 0.83720  0.81160  0.57320  Biso   1.000  C
  F106     1.0000 0.82990  0.75890  0.57390  Biso   1.000  F
  F107     1.0000 0.84390  0.82790  0.61840  Biso   1.000  F
  F108     1.0000 0.77050  0.83120  0.55650  Biso   1.000  F
  O73      1.0000 0.94160  0.79520  0.38300  Biso   1.000  O
  O74      1.0000 0.97510  0.85630  0.32450  Biso   1.000  O
  C121     1.0000 0.93920  0.81490  0.34170  Biso   1.000  C
  C122     1.0000 0.87800  0.78690  0.30570  Biso   1.000  C
  F109     1.0000 0.88610  0.80110  0.25930  Biso   1.000  F
  F110     1.0000 0.88260  0.73430  0.30840  Biso   1.000  F
  F111     1.0000 0.80660  0.79980  0.31930  Biso   1.000  F
  O75      1.0000 0.22870  0.03490  0.52020  Biso   1.000  O
  O76      1.0000 0.35940  0.04710  0.51310  Biso   1.000  O
  C123     1.0000 0.29200  0.05800  0.52870  Biso   1.000  C
  C124     1.0000 0.28540  0.10580  0.56750  Biso   1.000  C
  F112     1.0000 0.22260  0.13520  0.56090  Biso   1.000  F
  F113     1.0000 0.34580  0.13730  0.56720  Biso   1.000  F
  F114     1.0000 0.27830  0.08660  0.61280  Biso   1.000  F
  O77      1.0000 0.54470  0.78450  0.54260  Biso   1.000  O
  O78      1.0000 0.57860  0.87000  0.56380  Biso   1.000  O
  C125     1.0000 0.57480  0.82010  0.57040  Biso   1.000  C
  C126     1.0000 0.60640  0.79980  0.62200  Biso   1.000  C
  F115     1.0000 0.66060  0.83210  0.63950  Biso   1.000  F
  F116     1.0000 0.63650  0.75110  0.61930  Biso   1.000  F
  F117     1.0000 0.54930  0.79790  0.65410  Biso   1.000  F
  O79      1.0000 0.52160  0.76610  0.39050  Biso   1.000  O
  O80      1.0000 0.50820  0.83440  0.33610  Biso   1.000  O
  C127     1.0000 0.52660  0.78760  0.34870  Biso   1.000  C
  C128     1.0000 0.56940  0.75300  0.30930  Biso   1.000  C
  F118     1.0000 0.55190  0.70210  0.31460  Biso   1.000  F
  F119     1.0000 0.55670  0.76640  0.26400  Biso   1.000  F
  F120     1.0000 0.64600  0.75560  0.31620  Biso   1.000  F
