data_image0
_cell_length_a       13.783
_cell_length_b       12.697
_cell_length_c       6.743
_cell_angle_alpha    90
_cell_angle_beta     90.759
_cell_angle_gamma    90

_symmetry_space_group_name_H-M    "P 1"
_symmetry_int_tables_number       1

loop_
  _symmetry_equiv_pos_as_xyz
  'x, y, z'

loop_
  _atom_site_label
  _atom_site_occupancy
  _atom_site_fract_x
  _atom_site_fract_y
  _atom_site_fract_z
  _atom_site_thermal_displace_type
  _atom_site_B_iso_or_equiv
  _atom_site_type_symbol
  C1       1.0000 0.55200  0.28640  0.53780  Biso   1.000  C
  H1       1.0000 0.58560  0.34780  0.48730  Biso   1.000  H
  H2       1.0000 0.55290  0.29020  0.68150  Biso   1.000  H
  C2       1.0000 0.69780  0.17470  0.57010  Biso   1.000  C
  H3       1.0000 0.72840  0.11370  0.51110  Biso   1.000  H
  H4       1.0000 0.68830  0.15950  0.70940  Biso   1.000  H
  C3       1.0000 0.80430  0.31470  0.71630  Biso   1.000  C
  H5       1.0000 0.79070  0.28930  0.84220  Biso   1.000  H
  C4       1.0000 0.86590  0.40290  0.69340  Biso   1.000  C
  H6       1.0000 0.88800  0.43680  0.80750  Biso   1.000  H
  C5       1.0000 0.85490  0.39340  0.36500  Biso   1.000  C
  H7       1.0000 0.87090  0.41910  0.24060  Biso   1.000  H
  C6       1.0000 0.79180  0.30850  0.37520  Biso   1.000  C
  H8       1.0000 0.76710  0.27920  0.25860  Biso   1.000  H
  C7       1.0000 0.76520  0.26740  0.55310  Biso   1.000  C
  N1       1.0000 0.89360  0.43960  0.52370  Biso   1.000  N
  N2       1.0000 0.60220  0.19070  0.47410  Biso   1.000  N
  H9       1.0000 0.57800  0.14760  0.38830  Biso   1.000  H
  C8       1.0000 0.05200  0.78640  0.53780  Biso   1.000  C
  H10      1.0000 0.08560  0.84780  0.48730  Biso   1.000  H
  H11      1.0000 0.05290  0.79020  0.68150  Biso   1.000  H
  C9       1.0000 0.19780  0.67470  0.57010  Biso   1.000  C
  H12      1.0000 0.22840  0.61370  0.51110  Biso   1.000  H
  H13      1.0000 0.18830  0.65950  0.70940  Biso   1.000  H
  C10      1.0000 0.30430  0.81470  0.71630  Biso   1.000  C
  H14      1.0000 0.29070  0.78930  0.84220  Biso   1.000  H
  C11      1.0000 0.36590  0.90290  0.69340  Biso   1.000  C
  H15      1.0000 0.38800  0.93680  0.80750  Biso   1.000  H
  C12      1.0000 0.35490  0.89340  0.36500  Biso   1.000  C
  H16      1.0000 0.37090  0.91910  0.24060  Biso   1.000  H
  C13      1.0000 0.29180  0.80850  0.37520  Biso   1.000  C
  H17      1.0000 0.26710  0.77920  0.25860  Biso   1.000  H
  C14      1.0000 0.26520  0.76740  0.55310  Biso   1.000  C
  N3       1.0000 0.39360  0.93960  0.52370  Biso   1.000  N
  N4       1.0000 0.10220  0.69070  0.47410  Biso   1.000  N
  H18      1.0000 0.07800  0.64760  0.38830  Biso   1.000  H
  C15      1.0000 0.44800  0.28640  0.46220  Biso   1.000  C
  H19      1.0000 0.41440  0.34780  0.51270  Biso   1.000  H
  H20      1.0000 0.44710  0.29020  0.31850  Biso   1.000  H
  C16      1.0000 0.30220  0.17470  0.42990  Biso   1.000  C
  H21      1.0000 0.27160  0.11370  0.48890  Biso   1.000  H
  H22      1.0000 0.31170  0.15950  0.29060  Biso   1.000  H
  C17      1.0000 0.19570  0.31470  0.28370  Biso   1.000  C
  H23      1.0000 0.20930  0.28930  0.15780  Biso   1.000  H
  C18      1.0000 0.13410  0.40290  0.30660  Biso   1.000  C
  H24      1.0000 0.11200  0.43680  0.19250  Biso   1.000  H
  C19      1.0000 0.14510  0.39340  0.63500  Biso   1.000  C
  H25      1.0000 0.12910  0.41910  0.75940  Biso   1.000  H
  C20      1.0000 0.20820  0.30850  0.62480  Biso   1.000  C
  H26      1.0000 0.23290  0.27920  0.74140  Biso   1.000  H
  C21      1.0000 0.23480  0.26740  0.44690  Biso   1.000  C
  N5       1.0000 0.10640  0.43960  0.47630  Biso   1.000  N
  N6       1.0000 0.39780  0.19070  0.52590  Biso   1.000  N
  H27      1.0000 0.42200  0.14760  0.61170  Biso   1.000  H
  C22      1.0000 0.94800  0.78640  0.46220  Biso   1.000  C
  H28      1.0000 0.91440  0.84780  0.51270  Biso   1.000  H
  H29      1.0000 0.94710  0.79020  0.31850  Biso   1.000  H
  C23      1.0000 0.80220  0.67470  0.42990  Biso   1.000  C
  H30      1.0000 0.77160  0.61370  0.48890  Biso   1.000  H
  H31      1.0000 0.81170  0.65950  0.29060  Biso   1.000  H
  C24      1.0000 0.69570  0.81470  0.28370  Biso   1.000  C
  H32      1.0000 0.70930  0.78930  0.15780  Biso   1.000  H
  C25      1.0000 0.63410  0.90290  0.30660  Biso   1.000  C
  H33      1.0000 0.61200  0.93680  0.19250  Biso   1.000  H
  C26      1.0000 0.64510  0.89340  0.63500  Biso   1.000  C
  H34      1.0000 0.62910  0.91910  0.75940  Biso   1.000  H
  C27      1.0000 0.70820  0.80850  0.62480  Biso   1.000  C
  H35      1.0000 0.73290  0.77920  0.74140  Biso   1.000  H
  C28      1.0000 0.73480  0.76740  0.44690  Biso   1.000  C
  N7       1.0000 0.60640  0.93960  0.47630  Biso   1.000  N
  N8       1.0000 0.89780  0.69070  0.52590  Biso   1.000  N
  H36      1.0000 0.92200  0.64760  0.61170  Biso   1.000  H
  Zn1      1.0000 0.00000  0.56225  0.50000  Biso   1.000  Zn
  Zn2      1.0000 0.50000  0.06225  0.50000  Biso   1.000  Zn
