data_image0
_cell_length_a       13.722
_cell_length_b       13.7879
_cell_length_c       24.8892
_cell_angle_alpha    90
_cell_angle_beta     90
_cell_angle_gamma    90

_symmetry_space_group_name_H-M    "P 1"
_symmetry_int_tables_number       1

loop_
  _symmetry_equiv_pos_as_xyz
  'x, y, z'

loop_
  _atom_site_label
  _atom_site_occupancy
  _atom_site_fract_x
  _atom_site_fract_y
  _atom_site_fract_z
  _atom_site_thermal_displace_type
  _atom_site_B_iso_or_equiv
  _atom_site_type_symbol
  O1       1.0000 0.09400  0.70360  0.67880  Biso   1.000  O
  O2       1.0000 0.26760  0.02800  0.81710  Biso   1.000  O
  O3       1.0000 0.14090  0.93380  0.76670  Biso   1.000  O
  O4       1.0000 0.26660  0.84330  0.81870  Biso   1.000  O
  O5       1.0000 0.09310  0.66840  0.81710  Biso   1.000  O
  F1       1.0000 0.14000  0.93800  0.86790  Biso   1.000  F
  P1       1.0000 0.20830  0.93580  0.81701  Biso   1.000  P
  Cu1      1.0000 0.11539  0.05114  0.72391  Biso   1.000  Cu
  Cu2      1.0000 0.11685  0.82004  0.72158  Biso   1.000  Cu
  O6       1.0000 0.59400  0.20360  0.67880  Biso   1.000  O
  O7       1.0000 0.76760  0.52800  0.81710  Biso   1.000  O
  O8       1.0000 0.64090  0.43380  0.76670  Biso   1.000  O
  O9       1.0000 0.76660  0.34330  0.81870  Biso   1.000  O
  O10      1.0000 0.59310  0.16840  0.81710  Biso   1.000  O
  F2       1.0000 0.64000  0.43800  0.86790  Biso   1.000  F
  P2       1.0000 0.70830  0.43580  0.81701  Biso   1.000  P
  Cu3      1.0000 0.61539  0.55114  0.72391  Biso   1.000  Cu
  Cu4      1.0000 0.61685  0.32004  0.72158  Biso   1.000  Cu
  O11      1.0000 0.90600  0.20360  0.82120  Biso   1.000  O
  O12      1.0000 0.73240  0.52800  0.68290  Biso   1.000  O
  O13      1.0000 0.85910  0.43380  0.73330  Biso   1.000  O
  O14      1.0000 0.73340  0.34330  0.68130  Biso   1.000  O
  O15      1.0000 0.90690  0.16840  0.68290  Biso   1.000  O
  F3       1.0000 0.86000  0.43800  0.63210  Biso   1.000  F
  P3       1.0000 0.79170  0.43580  0.68299  Biso   1.000  P
  Cu5      1.0000 0.88461  0.55114  0.77609  Biso   1.000  Cu
  Cu6      1.0000 0.88315  0.32004  0.77842  Biso   1.000  Cu
  O16      1.0000 0.40600  0.70360  0.82120  Biso   1.000  O
  O17      1.0000 0.23240  0.02800  0.68290  Biso   1.000  O
  O18      1.0000 0.35910  0.93380  0.73330  Biso   1.000  O
  O19      1.0000 0.23340  0.84330  0.68130  Biso   1.000  O
  O20      1.0000 0.40690  0.66840  0.68290  Biso   1.000  O
  F4       1.0000 0.36000  0.93800  0.63210  Biso   1.000  F
  P4       1.0000 0.29170  0.93580  0.68299  Biso   1.000  P
  Cu7      1.0000 0.38461  0.05114  0.77609  Biso   1.000  Cu
  Cu8      1.0000 0.38315  0.82004  0.77842  Biso   1.000  Cu
  O21      1.0000 0.09400  0.20360  0.82120  Biso   1.000  O
  O22      1.0000 0.26760  0.52800  0.68290  Biso   1.000  O
  O23      1.0000 0.14090  0.43380  0.73330  Biso   1.000  O
  O24      1.0000 0.26660  0.34330  0.68130  Biso   1.000  O
  O25      1.0000 0.09310  0.16840  0.68290  Biso   1.000  O
  F5       1.0000 0.14000  0.43800  0.63210  Biso   1.000  F
  P5       1.0000 0.20830  0.43580  0.68299  Biso   1.000  P
  Cu9      1.0000 0.11539  0.55114  0.77609  Biso   1.000  Cu
  Cu10     1.0000 0.11685  0.32004  0.77842  Biso   1.000  Cu
  O26      1.0000 0.59400  0.70360  0.82120  Biso   1.000  O
  O27      1.0000 0.76760  0.02800  0.68290  Biso   1.000  O
  O28      1.0000 0.64090  0.93380  0.73330  Biso   1.000  O
  O29      1.0000 0.76660  0.84330  0.68130  Biso   1.000  O
  O30      1.0000 0.59310  0.66840  0.68290  Biso   1.000  O
  F6       1.0000 0.64000  0.93800  0.63210  Biso   1.000  F
  P6       1.0000 0.70830  0.93580  0.68299  Biso   1.000  P
  Cu11     1.0000 0.61539  0.05114  0.77609  Biso   1.000  Cu
  Cu12     1.0000 0.61685  0.82004  0.77842  Biso   1.000  Cu
  O31      1.0000 0.90600  0.70360  0.67880  Biso   1.000  O
  O32      1.0000 0.73240  0.02800  0.81710  Biso   1.000  O
  O33      1.0000 0.85910  0.93380  0.76670  Biso   1.000  O
  O34      1.0000 0.73340  0.84330  0.81870  Biso   1.000  O
  O35      1.0000 0.90690  0.66840  0.81710  Biso   1.000  O
  F7       1.0000 0.86000  0.93800  0.86790  Biso   1.000  F
  P7       1.0000 0.79170  0.93580  0.81701  Biso   1.000  P
  Cu13     1.0000 0.88461  0.05114  0.72391  Biso   1.000  Cu
  Cu14     1.0000 0.88315  0.82004  0.72158  Biso   1.000  Cu
  O36      1.0000 0.40600  0.20360  0.67880  Biso   1.000  O
  O37      1.0000 0.23240  0.52800  0.81710  Biso   1.000  O
  O38      1.0000 0.35910  0.43380  0.76670  Biso   1.000  O
  O39      1.0000 0.23340  0.34330  0.81870  Biso   1.000  O
  O40      1.0000 0.40690  0.16840  0.81710  Biso   1.000  O
  F8       1.0000 0.36000  0.43800  0.86790  Biso   1.000  F
  P8       1.0000 0.29170  0.43580  0.81701  Biso   1.000  P
  Cu15     1.0000 0.38461  0.55114  0.72391  Biso   1.000  Cu
  Cu16     1.0000 0.38315  0.32004  0.72158  Biso   1.000  Cu
  O41      1.0000 0.00000  0.79050  0.76420  Biso   1.000  O
  O42      1.0000 0.00000  0.57910  0.73170  Biso   1.000  O
  F9       1.0000 0.00000  0.57650  0.63080  Biso   1.000  F
  F10      1.0000 0.00000  0.79620  0.86480  Biso   1.000  F
  P9       1.0000 0.00000  0.64580  0.68060  Biso   1.000  P
  P10      1.0000 0.00000  0.72860  0.81540  Biso   1.000  P
  O43      1.0000 0.50000  0.29050  0.76420  Biso   1.000  O
  O44      1.0000 0.50000  0.07910  0.73170  Biso   1.000  O
  F11      1.0000 0.50000  0.07650  0.63080  Biso   1.000  F
  F12      1.0000 0.50000  0.29620  0.86480  Biso   1.000  F
  P11      1.0000 0.50000  0.14580  0.68060  Biso   1.000  P
  P12      1.0000 0.50000  0.22860  0.81540  Biso   1.000  P
  O45      1.0000 0.00000  0.29050  0.73580  Biso   1.000  O
  O46      1.0000 0.00000  0.07910  0.76830  Biso   1.000  O
  F13      1.0000 0.00000  0.07650  0.86920  Biso   1.000  F
  F14      1.0000 0.00000  0.29620  0.63520  Biso   1.000  F
  P13      1.0000 0.00000  0.14580  0.81940  Biso   1.000  P
  P14      1.0000 0.00000  0.22860  0.68460  Biso   1.000  P
  O47      1.0000 0.50000  0.79050  0.73580  Biso   1.000  O
  O48      1.0000 0.50000  0.57910  0.76830  Biso   1.000  O
  F15      1.0000 0.50000  0.57650  0.86920  Biso   1.000  F
  F16      1.0000 0.50000  0.79620  0.63520  Biso   1.000  F
  P15      1.0000 0.50000  0.64580  0.81940  Biso   1.000  P
  P16      1.0000 0.50000  0.72860  0.68460  Biso   1.000  P
  O49      1.0000 0.90600  0.79640  0.17880  Biso   1.000  O
  O50      1.0000 0.73240  0.47200  0.31710  Biso   1.000  O
  O51      1.0000 0.85910  0.56620  0.26670  Biso   1.000  O
  O52      1.0000 0.73340  0.65670  0.31870  Biso   1.000  O
  O53      1.0000 0.90690  0.83160  0.31710  Biso   1.000  O
  F17      1.0000 0.86000  0.56200  0.36790  Biso   1.000  F
  P17      1.0000 0.79170  0.56420  0.31701  Biso   1.000  P
  Cu17     1.0000 0.88461  0.44886  0.22391  Biso   1.000  Cu
  Cu18     1.0000 0.88315  0.67996  0.22158  Biso   1.000  Cu
  O54      1.0000 0.40600  0.29640  0.17880  Biso   1.000  O
  O55      1.0000 0.23240  0.97200  0.31710  Biso   1.000  O
  O56      1.0000 0.35910  0.06620  0.26670  Biso   1.000  O
  O57      1.0000 0.23340  0.15670  0.31870  Biso   1.000  O
  O58      1.0000 0.40690  0.33160  0.31710  Biso   1.000  O
  F18      1.0000 0.36000  0.06200  0.36790  Biso   1.000  F
  P18      1.0000 0.29170  0.06420  0.31701  Biso   1.000  P
  Cu19     1.0000 0.38461  0.94886  0.22391  Biso   1.000  Cu
  Cu20     1.0000 0.38315  0.17996  0.22158  Biso   1.000  Cu
  O59      1.0000 0.09400  0.29640  0.32120  Biso   1.000  O
  O60      1.0000 0.26760  0.97200  0.18290  Biso   1.000  O
  O61      1.0000 0.14090  0.06620  0.23330  Biso   1.000  O
  O62      1.0000 0.26660  0.15670  0.18130  Biso   1.000  O
  O63      1.0000 0.09310  0.33160  0.18290  Biso   1.000  O
  F19      1.0000 0.14000  0.06200  0.13210  Biso   1.000  F
  P19      1.0000 0.20830  0.06420  0.18299  Biso   1.000  P
  Cu21     1.0000 0.11539  0.94886  0.27609  Biso   1.000  Cu
  Cu22     1.0000 0.11685  0.17996  0.27842  Biso   1.000  Cu
  O64      1.0000 0.59400  0.79640  0.32120  Biso   1.000  O
  O65      1.0000 0.76760  0.47200  0.18290  Biso   1.000  O
  O66      1.0000 0.64090  0.56620  0.23330  Biso   1.000  O
  O67      1.0000 0.76660  0.65670  0.18130  Biso   1.000  O
  O68      1.0000 0.59310  0.83160  0.18290  Biso   1.000  O
  F20      1.0000 0.64000  0.56200  0.13210  Biso   1.000  F
  P20      1.0000 0.70830  0.56420  0.18299  Biso   1.000  P
  Cu23     1.0000 0.61539  0.44886  0.27609  Biso   1.000  Cu
  Cu24     1.0000 0.61685  0.67996  0.27842  Biso   1.000  Cu
  O69      1.0000 0.90600  0.29640  0.32120  Biso   1.000  O
  O70      1.0000 0.73240  0.97200  0.18290  Biso   1.000  O
  O71      1.0000 0.85910  0.06620  0.23330  Biso   1.000  O
  O72      1.0000 0.73340  0.15670  0.18130  Biso   1.000  O
  O73      1.0000 0.90690  0.33160  0.18290  Biso   1.000  O
  F21      1.0000 0.86000  0.06200  0.13210  Biso   1.000  F
  P21      1.0000 0.79170  0.06420  0.18299  Biso   1.000  P
  Cu25     1.0000 0.88461  0.94886  0.27609  Biso   1.000  Cu
  Cu26     1.0000 0.88315  0.17996  0.27842  Biso   1.000  Cu
  O74      1.0000 0.40600  0.79640  0.32120  Biso   1.000  O
  O75      1.0000 0.23240  0.47200  0.18290  Biso   1.000  O
  O76      1.0000 0.35910  0.56620  0.23330  Biso   1.000  O
  O77      1.0000 0.23340  0.65670  0.18130  Biso   1.000  O
  O78      1.0000 0.40690  0.83160  0.18290  Biso   1.000  O
  F22      1.0000 0.36000  0.56200  0.13210  Biso   1.000  F
  P22      1.0000 0.29170  0.56420  0.18299  Biso   1.000  P
  Cu27     1.0000 0.38461  0.44886  0.27609  Biso   1.000  Cu
  Cu28     1.0000 0.38315  0.67996  0.27842  Biso   1.000  Cu
  O79      1.0000 0.09400  0.79640  0.17880  Biso   1.000  O
  O80      1.0000 0.26760  0.47200  0.31710  Biso   1.000  O
  O81      1.0000 0.14090  0.56620  0.26670  Biso   1.000  O
  O82      1.0000 0.26660  0.65670  0.31870  Biso   1.000  O
  O83      1.0000 0.09310  0.83160  0.31710  Biso   1.000  O
  F23      1.0000 0.14000  0.56200  0.36790  Biso   1.000  F
  P23      1.0000 0.20830  0.56420  0.31701  Biso   1.000  P
  Cu29     1.0000 0.11539  0.44886  0.22391  Biso   1.000  Cu
  Cu30     1.0000 0.11685  0.67996  0.22158  Biso   1.000  Cu
  O84      1.0000 0.59400  0.29640  0.17880  Biso   1.000  O
  O85      1.0000 0.76760  0.97200  0.31710  Biso   1.000  O
  O86      1.0000 0.64090  0.06620  0.26670  Biso   1.000  O
  O87      1.0000 0.76660  0.15670  0.31870  Biso   1.000  O
  O88      1.0000 0.59310  0.33160  0.31710  Biso   1.000  O
  F24      1.0000 0.64000  0.06200  0.36790  Biso   1.000  F
  P24      1.0000 0.70830  0.06420  0.31701  Biso   1.000  P
  Cu31     1.0000 0.61539  0.94886  0.22391  Biso   1.000  Cu
  Cu32     1.0000 0.61685  0.17996  0.22158  Biso   1.000  Cu
  O89      1.0000 0.00000  0.70950  0.26420  Biso   1.000  O
  O90      1.0000 0.00000  0.92090  0.23170  Biso   1.000  O
  F25      1.0000 0.00000  0.92350  0.13080  Biso   1.000  F
  F26      1.0000 0.00000  0.70380  0.36480  Biso   1.000  F
  P25      1.0000 0.00000  0.85420  0.18060  Biso   1.000  P
  P26      1.0000 0.00000  0.77140  0.31540  Biso   1.000  P
  O91      1.0000 0.50000  0.20950  0.26420  Biso   1.000  O
  O92      1.0000 0.50000  0.42090  0.23170  Biso   1.000  O
  F27      1.0000 0.50000  0.42350  0.13080  Biso   1.000  F
  F28      1.0000 0.50000  0.20380  0.36480  Biso   1.000  F
  P27      1.0000 0.50000  0.35420  0.18060  Biso   1.000  P
  P28      1.0000 0.50000  0.27140  0.31540  Biso   1.000  P
  O93      1.0000 0.00000  0.20950  0.23580  Biso   1.000  O
  O94      1.0000 0.00000  0.42090  0.26830  Biso   1.000  O
  F29      1.0000 0.00000  0.42350  0.36920  Biso   1.000  F
  F30      1.0000 0.00000  0.20380  0.13520  Biso   1.000  F
  P29      1.0000 0.00000  0.35420  0.31940  Biso   1.000  P
  P30      1.0000 0.00000  0.27140  0.18460  Biso   1.000  P
  O95      1.0000 0.50000  0.70950  0.23580  Biso   1.000  O
  O96      1.0000 0.50000  0.92090  0.26830  Biso   1.000  O
  F31      1.0000 0.50000  0.92350  0.36920  Biso   1.000  F
  F32      1.0000 0.50000  0.70380  0.13520  Biso   1.000  F
  P31      1.0000 0.50000  0.85420  0.31940  Biso   1.000  P
  P32      1.0000 0.50000  0.77140  0.18460  Biso   1.000  P
