data_image0
_cell_length_a       24.415
_cell_length_b       24.415
_cell_length_c       15.337
_cell_angle_alpha    90
_cell_angle_beta     90
_cell_angle_gamma    90

_symmetry_space_group_name_H-M    "P 1"
_symmetry_int_tables_number       1

loop_
  _symmetry_equiv_pos_as_xyz
  'x, y, z'

loop_
  _atom_site_label
  _atom_site_occupancy
  _atom_site_fract_x
  _atom_site_fract_y
  _atom_site_fract_z
  _atom_site_thermal_displace_type
  _atom_site_B_iso_or_equiv
  _atom_site_type_symbol
  Cu1      1.0000 0.31400  0.10371  0.75579  Biso   1.000  Cu
  N1       1.0000 0.05820  0.01770  0.34730  Biso   1.000  N
  C1       1.0000 0.10650  0.99200  0.34660  Biso   1.000  C
  H1       1.0000 0.11240  0.96430  0.30610  Biso   1.000  H
  N2       1.0000 0.26130  0.08560  0.66160  Biso   1.000  N
  C2       1.0000 0.14760  0.00500  0.40330  Biso   1.000  C
  H2       1.0000 0.18080  0.98650  0.40080  Biso   1.000  H
  N3       1.0000 0.26190  0.08350  0.85090  Biso   1.000  N
  C3       1.0000 0.13960  0.04620  0.46520  Biso   1.000  C
  N4       1.0000 0.05820  0.02050  0.16230  Biso   1.000  N
  C4       1.0000 0.08990  0.07370  0.46240  Biso   1.000  C
  H3       1.0000 0.08290  0.10220  0.50120  Biso   1.000  H
  C5       1.0000 0.05110  0.05880  0.40230  Biso   1.000  C
  H4       1.0000 0.01850  0.07840  0.40010  Biso   1.000  H
  C6       1.0000 0.27210  0.05260  0.59110  Biso   1.000  C
  H5       1.0000 0.30680  0.03720  0.58630  Biso   1.000  H
  C7       1.0000 0.23470  0.04150  0.52810  Biso   1.000  C
  H6       1.0000 0.24540  0.02020  0.48080  Biso   1.000  H
  C8       1.0000 0.18190  0.06020  0.53100  Biso   1.000  C
  C9       1.0000 0.17040  0.09350  0.60160  Biso   1.000  C
  H7       1.0000 0.13520  0.10780  0.60730  Biso   1.000  H
  C10      1.0000 0.20940  0.10660  0.66460  Biso   1.000  C
  H8       1.0000 0.19990  0.13030  0.70970  Biso   1.000  H
  C11      1.0000 0.24870  0.11920  0.91340  Biso   1.000  C
  H9       1.0000 0.26580  0.15320  0.91440  Biso   1.000  H
  C12      1.0000 0.21040  0.10700  0.97690  Biso   1.000  C
  H10      1.0000 0.20310  0.13240  0.02050  Biso   1.000  H
  C13      1.0000 0.18360  0.05930  0.97640  Biso   1.000  C
  C14      1.0000 0.19690  0.02290  0.91120  Biso   1.000  C
  H11      1.0000 0.17950  0.98910  0.90880  Biso   1.000  H
  C15      1.0000 0.23430  0.03570  0.85180  Biso   1.000  C
  H12      1.0000 0.24180  0.01030  0.80830  Biso   1.000  H
  C16      1.0000 0.08530  0.06870  0.16880  Biso   1.000  C
  H13      1.0000 0.07690  0.09360  0.21270  Biso   1.000  H
  C17      1.0000 0.12670  0.08000  0.10730  Biso   1.000  C
  H14      1.0000 0.14490  0.11330  0.11220  Biso   1.000  H
  C18      1.0000 0.14180  0.04690  0.04260  Biso   1.000  C
  C19      1.0000 0.11000  0.99810  0.03680  Biso   1.000  C
  H15      1.0000 0.11690  0.97360  0.99180  Biso   1.000  H
  C20      1.0000 0.06990  0.98660  0.09530  Biso   1.000  C
  H16      1.0000 0.04990  0.95440  0.08910  Biso   1.000  H
  Cu2      1.0000 0.68600  0.89629  0.75579  Biso   1.000  Cu
  N5       1.0000 0.94180  0.98230  0.34730  Biso   1.000  N
  C21      1.0000 0.89350  0.00800  0.34660  Biso   1.000  C
  H17      1.0000 0.88760  0.03570  0.30610  Biso   1.000  H
  N6       1.0000 0.73870  0.91440  0.66160  Biso   1.000  N
  C22      1.0000 0.85240  0.99500  0.40330  Biso   1.000  C
  H18      1.0000 0.81920  0.01350  0.40080  Biso   1.000  H
  N7       1.0000 0.73810  0.91650  0.85090  Biso   1.000  N
  C23      1.0000 0.86040  0.95380  0.46520  Biso   1.000  C
  N8       1.0000 0.94180  0.97950  0.16230  Biso   1.000  N
  C24      1.0000 0.91010  0.92630  0.46240  Biso   1.000  C
  H19      1.0000 0.91710  0.89780  0.50120  Biso   1.000  H
  C25      1.0000 0.94890  0.94120  0.40230  Biso   1.000  C
  H20      1.0000 0.98150  0.92160  0.40010  Biso   1.000  H
  C26      1.0000 0.72790  0.94740  0.59110  Biso   1.000  C
  H21      1.0000 0.69320  0.96280  0.58630  Biso   1.000  H
  C27      1.0000 0.76530  0.95850  0.52810  Biso   1.000  C
  H22      1.0000 0.75460  0.97980  0.48080  Biso   1.000  H
  C28      1.0000 0.81810  0.93980  0.53100  Biso   1.000  C
  C29      1.0000 0.82960  0.90650  0.60160  Biso   1.000  C
  H23      1.0000 0.86480  0.89220  0.60730  Biso   1.000  H
  C30      1.0000 0.79060  0.89340  0.66460  Biso   1.000  C
  H24      1.0000 0.80010  0.86970  0.70970  Biso   1.000  H
  C31      1.0000 0.75130  0.88080  0.91340  Biso   1.000  C
  H25      1.0000 0.73420  0.84680  0.91440  Biso   1.000  H
  C32      1.0000 0.78960  0.89300  0.97690  Biso   1.000  C
  H26      1.0000 0.79690  0.86760  0.02050  Biso   1.000  H
  C33      1.0000 0.81640  0.94070  0.97640  Biso   1.000  C
  C34      1.0000 0.80310  0.97710  0.91120  Biso   1.000  C
  H27      1.0000 0.82050  0.01090  0.90880  Biso   1.000  H
  C35      1.0000 0.76570  0.96430  0.85180  Biso   1.000  C
  H28      1.0000 0.75820  0.98970  0.80830  Biso   1.000  H
  C36      1.0000 0.91470  0.93130  0.16880  Biso   1.000  C
  H29      1.0000 0.92310  0.90640  0.21270  Biso   1.000  H
  C37      1.0000 0.87330  0.92000  0.10730  Biso   1.000  C
  H30      1.0000 0.85510  0.88670  0.11220  Biso   1.000  H
  C38      1.0000 0.85820  0.95310  0.04260  Biso   1.000  C
  C39      1.0000 0.89000  0.00190  0.03680  Biso   1.000  C
  H31      1.0000 0.88310  0.02640  0.99180  Biso   1.000  H
  C40      1.0000 0.93010  0.01340  0.09530  Biso   1.000  C
  H32      1.0000 0.95010  0.04560  0.08910  Biso   1.000  H
  Cu3      1.0000 0.39629  0.18600  0.75579  Biso   1.000  Cu
  N9       1.0000 0.48230  0.44180  0.34730  Biso   1.000  N
  C41      1.0000 0.50800  0.39350  0.34660  Biso   1.000  C
  H33      1.0000 0.53570  0.38760  0.30610  Biso   1.000  H
  N10      1.0000 0.41440  0.23870  0.66160  Biso   1.000  N
  C42      1.0000 0.49500  0.35240  0.40330  Biso   1.000  C
  H34      1.0000 0.51350  0.31920  0.40080  Biso   1.000  H
  N11      1.0000 0.41650  0.23810  0.85090  Biso   1.000  N
  C43      1.0000 0.45380  0.36040  0.46520  Biso   1.000  C
  N12      1.0000 0.47950  0.44180  0.16230  Biso   1.000  N
  C44      1.0000 0.42630  0.41010  0.46240  Biso   1.000  C
  H35      1.0000 0.39780  0.41710  0.50120  Biso   1.000  H
  C45      1.0000 0.44120  0.44890  0.40230  Biso   1.000  C
  H36      1.0000 0.42160  0.48150  0.40010  Biso   1.000  H
  C46      1.0000 0.44740  0.22790  0.59110  Biso   1.000  C
  H37      1.0000 0.46280  0.19320  0.58630  Biso   1.000  H
  C47      1.0000 0.45850  0.26530  0.52810  Biso   1.000  C
  H38      1.0000 0.47980  0.25460  0.48080  Biso   1.000  H
  C48      1.0000 0.43980  0.31810  0.53100  Biso   1.000  C
  C49      1.0000 0.40650  0.32960  0.60160  Biso   1.000  C
  H39      1.0000 0.39220  0.36480  0.60730  Biso   1.000  H
  C50      1.0000 0.39340  0.29060  0.66460  Biso   1.000  C
  H40      1.0000 0.36970  0.30010  0.70970  Biso   1.000  H
  C51      1.0000 0.38080  0.25130  0.91340  Biso   1.000  C
  H41      1.0000 0.34680  0.23420  0.91440  Biso   1.000  H
  C52      1.0000 0.39300  0.28960  0.97690  Biso   1.000  C
  H42      1.0000 0.36760  0.29690  0.02050  Biso   1.000  H
  C53      1.0000 0.44070  0.31640  0.97640  Biso   1.000  C
  C54      1.0000 0.47710  0.30310  0.91120  Biso   1.000  C
  H43      1.0000 0.51090  0.32050  0.90880  Biso   1.000  H
  C55      1.0000 0.46430  0.26570  0.85180  Biso   1.000  C
  H44      1.0000 0.48970  0.25820  0.80830  Biso   1.000  H
  C56      1.0000 0.43130  0.41470  0.16880  Biso   1.000  C
  H45      1.0000 0.40640  0.42310  0.21270  Biso   1.000  H
  C57      1.0000 0.42000  0.37330  0.10730  Biso   1.000  C
  H46      1.0000 0.38670  0.35510  0.11220  Biso   1.000  H
  C58      1.0000 0.45310  0.35820  0.04260  Biso   1.000  C
  C59      1.0000 0.50190  0.39000  0.03680  Biso   1.000  C
  H47      1.0000 0.52640  0.38310  0.99180  Biso   1.000  H
  C60      1.0000 0.51340  0.43010  0.09530  Biso   1.000  C
  H48      1.0000 0.54560  0.45010  0.08910  Biso   1.000  H
  Cu4      1.0000 0.60371  0.81400  0.75579  Biso   1.000  Cu
  N13      1.0000 0.51770  0.55820  0.34730  Biso   1.000  N
  C61      1.0000 0.49200  0.60650  0.34660  Biso   1.000  C
  H49      1.0000 0.46430  0.61240  0.30610  Biso   1.000  H
  N14      1.0000 0.58560  0.76130  0.66160  Biso   1.000  N
  C62      1.0000 0.50500  0.64760  0.40330  Biso   1.000  C
  H50      1.0000 0.48650  0.68080  0.40080  Biso   1.000  H
  N15      1.0000 0.58350  0.76190  0.85090  Biso   1.000  N
  C63      1.0000 0.54620  0.63960  0.46520  Biso   1.000  C
  N16      1.0000 0.52050  0.55820  0.16230  Biso   1.000  N
  C64      1.0000 0.57370  0.58990  0.46240  Biso   1.000  C
  H51      1.0000 0.60220  0.58290  0.50120  Biso   1.000  H
  C65      1.0000 0.55880  0.55110  0.40230  Biso   1.000  C
  H52      1.0000 0.57840  0.51850  0.40010  Biso   1.000  H
  C66      1.0000 0.55260  0.77210  0.59110  Biso   1.000  C
  H53      1.0000 0.53720  0.80680  0.58630  Biso   1.000  H
  C67      1.0000 0.54150  0.73470  0.52810  Biso   1.000  C
  H54      1.0000 0.52020  0.74540  0.48080  Biso   1.000  H
  C68      1.0000 0.56020  0.68190  0.53100  Biso   1.000  C
  C69      1.0000 0.59350  0.67040  0.60160  Biso   1.000  C
  H55      1.0000 0.60780  0.63520  0.60730  Biso   1.000  H
  C70      1.0000 0.60660  0.70940  0.66460  Biso   1.000  C
  H56      1.0000 0.63030  0.69990  0.70970  Biso   1.000  H
  C71      1.0000 0.61920  0.74870  0.91340  Biso   1.000  C
  H57      1.0000 0.65320  0.76580  0.91440  Biso   1.000  H
  C72      1.0000 0.60700  0.71040  0.97690  Biso   1.000  C
  H58      1.0000 0.63240  0.70310  0.02050  Biso   1.000  H
  C73      1.0000 0.55930  0.68360  0.97640  Biso   1.000  C
  C74      1.0000 0.52290  0.69690  0.91120  Biso   1.000  C
  H59      1.0000 0.48910  0.67950  0.90880  Biso   1.000  H
  C75      1.0000 0.53570  0.73430  0.85180  Biso   1.000  C
  H60      1.0000 0.51030  0.74180  0.80830  Biso   1.000  H
  C76      1.0000 0.56870  0.58530  0.16880  Biso   1.000  C
  H61      1.0000 0.59360  0.57690  0.21270  Biso   1.000  H
  C77      1.0000 0.58000  0.62670  0.10730  Biso   1.000  C
  H62      1.0000 0.61330  0.64490  0.11220  Biso   1.000  H
  C78      1.0000 0.54690  0.64180  0.04260  Biso   1.000  C
  C79      1.0000 0.49810  0.61000  0.03680  Biso   1.000  C
  H63      1.0000 0.47360  0.61690  0.99180  Biso   1.000  H
  C80      1.0000 0.48660  0.56990  0.09530  Biso   1.000  C
  H64      1.0000 0.45440  0.54990  0.08910  Biso   1.000  H
  Cu5      1.0000 0.00000  0.00000  0.25410  Biso   1.000  Cu
  Cu6      1.0000 0.50000  0.50000  0.25410  Biso   1.000  Cu
  O1       1.0000 0.36740  0.13260  0.67090  Biso   1.000  O
  O2       1.0000 0.36680  0.13320  0.83880  Biso   1.000  O
  O3       1.0000 0.63260  0.86740  0.67090  Biso   1.000  O
  O4       1.0000 0.63320  0.86680  0.83880  Biso   1.000  O
  Cu7      1.0000 0.10371  0.68600  0.24421  Biso   1.000  Cu
  N17      1.0000 0.01770  0.94180  0.65270  Biso   1.000  N
  C81      1.0000 0.99200  0.89350  0.65340  Biso   1.000  C
  H65      1.0000 0.96430  0.88760  0.69390  Biso   1.000  H
  N18      1.0000 0.08560  0.73870  0.33840  Biso   1.000  N
  C82      1.0000 0.00500  0.85240  0.59670  Biso   1.000  C
  H66      1.0000 0.98650  0.81920  0.59920  Biso   1.000  H
  N19      1.0000 0.08350  0.73810  0.14910  Biso   1.000  N
  C83      1.0000 0.04620  0.86040  0.53480  Biso   1.000  C
  N20      1.0000 0.02050  0.94180  0.83770  Biso   1.000  N
  C84      1.0000 0.07370  0.91010  0.53760  Biso   1.000  C
  H67      1.0000 0.10220  0.91710  0.49880  Biso   1.000  H
  C85      1.0000 0.05880  0.94890  0.59770  Biso   1.000  C
  H68      1.0000 0.07840  0.98150  0.59990  Biso   1.000  H
  C86      1.0000 0.05260  0.72790  0.40890  Biso   1.000  C
  H69      1.0000 0.03720  0.69320  0.41370  Biso   1.000  H
  C87      1.0000 0.04150  0.76530  0.47190  Biso   1.000  C
  H70      1.0000 0.02020  0.75460  0.51920  Biso   1.000  H
  C88      1.0000 0.06020  0.81810  0.46900  Biso   1.000  C
  C89      1.0000 0.09350  0.82960  0.39840  Biso   1.000  C
  H71      1.0000 0.10780  0.86480  0.39270  Biso   1.000  H
  C90      1.0000 0.10660  0.79060  0.33540  Biso   1.000  C
  H72      1.0000 0.13030  0.80010  0.29030  Biso   1.000  H
  C91      1.0000 0.11920  0.75130  0.08660  Biso   1.000  C
  H73      1.0000 0.15320  0.73420  0.08560  Biso   1.000  H
  C92      1.0000 0.10700  0.78960  0.02310  Biso   1.000  C
  H74      1.0000 0.13240  0.79690  0.97950  Biso   1.000  H
  C93      1.0000 0.05930  0.81640  0.02360  Biso   1.000  C
  C94      1.0000 0.02290  0.80310  0.08880  Biso   1.000  C
  H75      1.0000 0.98910  0.82050  0.09120  Biso   1.000  H
  C95      1.0000 0.03570  0.76570  0.14820  Biso   1.000  C
  H76      1.0000 0.01030  0.75820  0.19170  Biso   1.000  H
  C96      1.0000 0.06870  0.91470  0.83120  Biso   1.000  C
  H77      1.0000 0.09360  0.92310  0.78730  Biso   1.000  H
  C97      1.0000 0.08000  0.87330  0.89270  Biso   1.000  C
  H78      1.0000 0.11330  0.85510  0.88780  Biso   1.000  H
  C98      1.0000 0.04690  0.85820  0.95740  Biso   1.000  C
  C99      1.0000 0.99810  0.89000  0.96320  Biso   1.000  C
  H79      1.0000 0.97360  0.88310  0.00820  Biso   1.000  H
  C100     1.0000 0.98660  0.93010  0.90470  Biso   1.000  C
  H80      1.0000 0.95440  0.95010  0.91090  Biso   1.000  H
  Cu8      1.0000 0.89629  0.31400  0.24421  Biso   1.000  Cu
  N21      1.0000 0.98230  0.05820  0.65270  Biso   1.000  N
  C101     1.0000 0.00800  0.10650  0.65340  Biso   1.000  C
  H81      1.0000 0.03570  0.11240  0.69390  Biso   1.000  H
  N22      1.0000 0.91440  0.26130  0.33840  Biso   1.000  N
  C102     1.0000 0.99500  0.14760  0.59670  Biso   1.000  C
  H82      1.0000 0.01350  0.18080  0.59920  Biso   1.000  H
  N23      1.0000 0.91650  0.26190  0.14910  Biso   1.000  N
  C103     1.0000 0.95380  0.13960  0.53480  Biso   1.000  C
  N24      1.0000 0.97950  0.05820  0.83770  Biso   1.000  N
  C104     1.0000 0.92630  0.08990  0.53760  Biso   1.000  C
  H83      1.0000 0.89780  0.08290  0.49880  Biso   1.000  H
  C105     1.0000 0.94120  0.05110  0.59770  Biso   1.000  C
  H84      1.0000 0.92160  0.01850  0.59990  Biso   1.000  H
  C106     1.0000 0.94740  0.27210  0.40890  Biso   1.000  C
  H85      1.0000 0.96280  0.30680  0.41370  Biso   1.000  H
  C107     1.0000 0.95850  0.23470  0.47190  Biso   1.000  C
  H86      1.0000 0.97980  0.24540  0.51920  Biso   1.000  H
  C108     1.0000 0.93980  0.18190  0.46900  Biso   1.000  C
  C109     1.0000 0.90650  0.17040  0.39840  Biso   1.000  C
  H87      1.0000 0.89220  0.13520  0.39270  Biso   1.000  H
  C110     1.0000 0.89340  0.20940  0.33540  Biso   1.000  C
  H88      1.0000 0.86970  0.19990  0.29030  Biso   1.000  H
  C111     1.0000 0.88080  0.24870  0.08660  Biso   1.000  C
  H89      1.0000 0.84680  0.26580  0.08560  Biso   1.000  H
  C112     1.0000 0.89300  0.21040  0.02310  Biso   1.000  C
  H90      1.0000 0.86760  0.20310  0.97950  Biso   1.000  H
  C113     1.0000 0.94070  0.18360  0.02360  Biso   1.000  C
  C114     1.0000 0.97710  0.19690  0.08880  Biso   1.000  C
  H91      1.0000 0.01090  0.17950  0.09120  Biso   1.000  H
  C115     1.0000 0.96430  0.23430  0.14820  Biso   1.000  C
  H92      1.0000 0.98970  0.24180  0.19170  Biso   1.000  H
  C116     1.0000 0.93130  0.08530  0.83120  Biso   1.000  C
  H93      1.0000 0.90640  0.07690  0.78730  Biso   1.000  H
  C117     1.0000 0.92000  0.12670  0.89270  Biso   1.000  C
  H94      1.0000 0.88670  0.14490  0.88780  Biso   1.000  H
  C118     1.0000 0.95310  0.14180  0.95740  Biso   1.000  C
  C119     1.0000 0.00190  0.11000  0.96320  Biso   1.000  C
  H95      1.0000 0.02640  0.11690  0.00820  Biso   1.000  H
  C120     1.0000 0.01340  0.06990  0.90470  Biso   1.000  C
  H96      1.0000 0.04560  0.04990  0.91090  Biso   1.000  H
  Cu9      1.0000 0.18600  0.60371  0.24421  Biso   1.000  Cu
  N25      1.0000 0.44180  0.51770  0.65270  Biso   1.000  N
  C121     1.0000 0.39350  0.49200  0.65340  Biso   1.000  C
  H97      1.0000 0.38760  0.46430  0.69390  Biso   1.000  H
  N26      1.0000 0.23870  0.58560  0.33840  Biso   1.000  N
  C122     1.0000 0.35240  0.50500  0.59670  Biso   1.000  C
  H98      1.0000 0.31920  0.48650  0.59920  Biso   1.000  H
  N27      1.0000 0.23810  0.58350  0.14910  Biso   1.000  N
  C123     1.0000 0.36040  0.54620  0.53480  Biso   1.000  C
  N28      1.0000 0.44180  0.52050  0.83770  Biso   1.000  N
  C124     1.0000 0.41010  0.57370  0.53760  Biso   1.000  C
  H99      1.0000 0.41710  0.60220  0.49880  Biso   1.000  H
  C125     1.0000 0.44890  0.55880  0.59770  Biso   1.000  C
  H100     1.0000 0.48150  0.57840  0.59990  Biso   1.000  H
  C126     1.0000 0.22790  0.55260  0.40890  Biso   1.000  C
  H101     1.0000 0.19320  0.53720  0.41370  Biso   1.000  H
  C127     1.0000 0.26530  0.54150  0.47190  Biso   1.000  C
  H102     1.0000 0.25460  0.52020  0.51920  Biso   1.000  H
  C128     1.0000 0.31810  0.56020  0.46900  Biso   1.000  C
  C129     1.0000 0.32960  0.59350  0.39840  Biso   1.000  C
  H103     1.0000 0.36480  0.60780  0.39270  Biso   1.000  H
  C130     1.0000 0.29060  0.60660  0.33540  Biso   1.000  C
  H104     1.0000 0.30010  0.63030  0.29030  Biso   1.000  H
  C131     1.0000 0.25130  0.61920  0.08660  Biso   1.000  C
  H105     1.0000 0.23420  0.65320  0.08560  Biso   1.000  H
  C132     1.0000 0.28960  0.60700  0.02310  Biso   1.000  C
  H106     1.0000 0.29690  0.63240  0.97950  Biso   1.000  H
  C133     1.0000 0.31640  0.55930  0.02360  Biso   1.000  C
  C134     1.0000 0.30310  0.52290  0.08880  Biso   1.000  C
  H107     1.0000 0.32050  0.48910  0.09120  Biso   1.000  H
  C135     1.0000 0.26570  0.53570  0.14820  Biso   1.000  C
  H108     1.0000 0.25820  0.51030  0.19170  Biso   1.000  H
  C136     1.0000 0.41470  0.56870  0.83120  Biso   1.000  C
  H109     1.0000 0.42310  0.59360  0.78730  Biso   1.000  H
  C137     1.0000 0.37330  0.58000  0.89270  Biso   1.000  C
  H110     1.0000 0.35510  0.61330  0.88780  Biso   1.000  H
  C138     1.0000 0.35820  0.54690  0.95740  Biso   1.000  C
  C139     1.0000 0.39000  0.49810  0.96320  Biso   1.000  C
  H111     1.0000 0.38310  0.47360  0.00820  Biso   1.000  H
  C140     1.0000 0.43010  0.48660  0.90470  Biso   1.000  C
  H112     1.0000 0.45010  0.45440  0.91090  Biso   1.000  H
  Cu10     1.0000 0.81400  0.39629  0.24421  Biso   1.000  Cu
  N29      1.0000 0.55820  0.48230  0.65270  Biso   1.000  N
  C141     1.0000 0.60650  0.50800  0.65340  Biso   1.000  C
  H113     1.0000 0.61240  0.53570  0.69390  Biso   1.000  H
  N30      1.0000 0.76130  0.41440  0.33840  Biso   1.000  N
  C142     1.0000 0.64760  0.49500  0.59670  Biso   1.000  C
  H114     1.0000 0.68080  0.51350  0.59920  Biso   1.000  H
  N31      1.0000 0.76190  0.41650  0.14910  Biso   1.000  N
  C143     1.0000 0.63960  0.45380  0.53480  Biso   1.000  C
  N32      1.0000 0.55820  0.47950  0.83770  Biso   1.000  N
  C144     1.0000 0.58990  0.42630  0.53760  Biso   1.000  C
  H115     1.0000 0.58290  0.39780  0.49880  Biso   1.000  H
  C145     1.0000 0.55110  0.44120  0.59770  Biso   1.000  C
  H116     1.0000 0.51850  0.42160  0.59990  Biso   1.000  H
  C146     1.0000 0.77210  0.44740  0.40890  Biso   1.000  C
  H117     1.0000 0.80680  0.46280  0.41370  Biso   1.000  H
  C147     1.0000 0.73470  0.45850  0.47190  Biso   1.000  C
  H118     1.0000 0.74540  0.47980  0.51920  Biso   1.000  H
  C148     1.0000 0.68190  0.43980  0.46900  Biso   1.000  C
  C149     1.0000 0.67040  0.40650  0.39840  Biso   1.000  C
  H119     1.0000 0.63520  0.39220  0.39270  Biso   1.000  H
  C150     1.0000 0.70940  0.39340  0.33540  Biso   1.000  C
  H120     1.0000 0.69990  0.36970  0.29030  Biso   1.000  H
  C151     1.0000 0.74870  0.38080  0.08660  Biso   1.000  C
  H121     1.0000 0.76580  0.34680  0.08560  Biso   1.000  H
  C152     1.0000 0.71040  0.39300  0.02310  Biso   1.000  C
  H122     1.0000 0.70310  0.36760  0.97950  Biso   1.000  H
  C153     1.0000 0.68360  0.44070  0.02360  Biso   1.000  C
  C154     1.0000 0.69690  0.47710  0.08880  Biso   1.000  C
  H123     1.0000 0.67950  0.51090  0.09120  Biso   1.000  H
  C155     1.0000 0.73430  0.46430  0.14820  Biso   1.000  C
  H124     1.0000 0.74180  0.48970  0.19170  Biso   1.000  H
  C156     1.0000 0.58530  0.43130  0.83120  Biso   1.000  C
  H125     1.0000 0.57690  0.40640  0.78730  Biso   1.000  H
  C157     1.0000 0.62670  0.42000  0.89270  Biso   1.000  C
  H126     1.0000 0.64490  0.38670  0.88780  Biso   1.000  H
  C158     1.0000 0.64180  0.45310  0.95740  Biso   1.000  C
  C159     1.0000 0.61000  0.50190  0.96320  Biso   1.000  C
  H127     1.0000 0.61690  0.52640  0.00820  Biso   1.000  H
  C160     1.0000 0.56990  0.51340  0.90470  Biso   1.000  C
  H128     1.0000 0.54990  0.54560  0.91090  Biso   1.000  H
  Cu11     1.0000 0.00000  0.00000  0.74590  Biso   1.000  Cu
  Cu12     1.0000 0.50000  0.50000  0.74590  Biso   1.000  Cu
  O5       1.0000 0.13260  0.63260  0.32910  Biso   1.000  O
  O6       1.0000 0.13320  0.63320  0.16120  Biso   1.000  O
  O7       1.0000 0.86740  0.36740  0.32910  Biso   1.000  O
  O8       1.0000 0.86680  0.36680  0.16120  Biso   1.000  O
