data_image0
_cell_length_a       13.819
_cell_length_b       23.075
_cell_length_c       24.043
_cell_angle_alpha    90
_cell_angle_beta     90
_cell_angle_gamma    90

_symmetry_space_group_name_H-M    "P 1"
_symmetry_int_tables_number       1

loop_
  _symmetry_equiv_pos_as_xyz
  'x, y, z'

loop_
  _atom_site_label
  _atom_site_occupancy
  _atom_site_fract_x
  _atom_site_fract_y
  _atom_site_fract_z
  _atom_site_thermal_displace_type
  _atom_site_B_iso_or_equiv
  _atom_site_type_symbol
  Sn1      1.0000 0.64160  0.55660  0.29380  Biso   1.000  Sn
  Sn2      1.0000 0.86250  0.70730  0.54660  Biso   1.000  Sn
  N1       1.0000 0.83910  0.76160  0.37220  Biso   1.000  N
  N2       1.0000 0.88080  0.74070  0.41550  Biso   1.000  N
  N3       1.0000 0.81140  0.73990  0.45650  Biso   1.000  N
  N4       1.0000 0.74860  0.77150  0.37470  Biso   1.000  N
  N5       1.0000 0.60990  0.66090  0.38440  Biso   1.000  N
  N6       1.0000 0.58470  0.64230  0.33270  Biso   1.000  N
  N7       1.0000 0.51720  0.67660  0.31270  Biso   1.000  N
  N8       1.0000 0.50000  0.71720  0.34840  Biso   1.000  N
  C1       1.0000 0.55480  0.70630  0.38710  Biso   1.000  C
  C2       1.0000 0.73800  0.75870  0.43200  Biso   1.000  C
  C3       1.0000 0.55400  0.74420  0.44410  Biso   1.000  C
  C4       1.0000 0.46840  0.75300  0.47370  Biso   1.000  C
  C5       1.0000 0.46870  0.78700  0.52160  Biso   1.000  C
  C6       1.0000 0.55460  0.81230  0.54000  Biso   1.000  C
  C7       1.0000 0.64030  0.80350  0.51050  Biso   1.000  C
  C8       1.0000 0.64000  0.76950  0.46250  Biso   1.000  C
  C9       1.0000 0.88930  0.79850  0.57910  Biso   1.000  C
  C10      1.0000 0.00290  0.66980  0.51920  Biso   1.000  C
  C11      1.0000 0.72240  0.64940  0.54780  Biso   1.000  C
  Sn3      1.0000 0.13750  0.20730  0.95340  Biso   1.000  Sn
  N9       1.0000 0.16090  0.26160  0.12780  Biso   1.000  N
  N10      1.0000 0.11920  0.24070  0.08450  Biso   1.000  N
  N11      1.0000 0.18860  0.23990  0.04350  Biso   1.000  N
  N12      1.0000 0.25140  0.27150  0.12530  Biso   1.000  N
  N13      1.0000 0.39010  0.16090  0.11560  Biso   1.000  N
  N14      1.0000 0.41530  0.14230  0.16730  Biso   1.000  N
  N15      1.0000 0.48280  0.17660  0.18730  Biso   1.000  N
  N16      1.0000 0.50000  0.21720  0.15160  Biso   1.000  N
  C12      1.0000 0.44520  0.20630  0.11290  Biso   1.000  C
  C13      1.0000 0.26200  0.25870  0.06800  Biso   1.000  C
  C14      1.0000 0.44600  0.24420  0.05590  Biso   1.000  C
  C15      1.0000 0.53160  0.25300  0.02630  Biso   1.000  C
  C16      1.0000 0.53130  0.28700  0.97840  Biso   1.000  C
  C17      1.0000 0.44540  0.31230  0.96000  Biso   1.000  C
  C18      1.0000 0.35970  0.30350  0.98950  Biso   1.000  C
  C19      1.0000 0.36000  0.26950  0.03750  Biso   1.000  C
  C20      1.0000 0.11070  0.29850  0.92090  Biso   1.000  C
  C21      1.0000 0.99710  0.16980  0.98080  Biso   1.000  C
  C22      1.0000 0.27760  0.14940  0.95220  Biso   1.000  C
  Sn4      1.0000 0.35840  0.05660  0.20620  Biso   1.000  Sn
  Sn5      1.0000 0.64160  0.44340  0.70620  Biso   1.000  Sn
  Sn6      1.0000 0.86250  0.29270  0.45340  Biso   1.000  Sn
  N17      1.0000 0.83910  0.23840  0.62780  Biso   1.000  N
  N18      1.0000 0.88080  0.25930  0.58450  Biso   1.000  N
  N19      1.0000 0.81140  0.26010  0.54350  Biso   1.000  N
  N20      1.0000 0.74860  0.22850  0.62530  Biso   1.000  N
  N21      1.0000 0.60990  0.33910  0.61560  Biso   1.000  N
  N22      1.0000 0.58470  0.35770  0.66730  Biso   1.000  N
  N23      1.0000 0.51720  0.32340  0.68730  Biso   1.000  N
  N24      1.0000 0.50000  0.28280  0.65160  Biso   1.000  N
  C23      1.0000 0.55480  0.29370  0.61290  Biso   1.000  C
  C24      1.0000 0.73800  0.24130  0.56800  Biso   1.000  C
  C25      1.0000 0.55400  0.25580  0.55590  Biso   1.000  C
  C26      1.0000 0.46840  0.24700  0.52630  Biso   1.000  C
  C27      1.0000 0.46870  0.21300  0.47840  Biso   1.000  C
  C28      1.0000 0.55460  0.18770  0.46000  Biso   1.000  C
  C29      1.0000 0.64030  0.19650  0.48950  Biso   1.000  C
  C30      1.0000 0.64000  0.23050  0.53750  Biso   1.000  C
  C31      1.0000 0.88930  0.20150  0.42090  Biso   1.000  C
  C32      1.0000 0.00290  0.33020  0.48080  Biso   1.000  C
  C33      1.0000 0.72240  0.35060  0.45220  Biso   1.000  C
  Sn7      1.0000 0.13750  0.79270  0.04660  Biso   1.000  Sn
  N25      1.0000 0.16090  0.73840  0.87220  Biso   1.000  N
  N26      1.0000 0.11920  0.75930  0.91550  Biso   1.000  N
  N27      1.0000 0.18860  0.76010  0.95650  Biso   1.000  N
  N28      1.0000 0.25140  0.72850  0.87470  Biso   1.000  N
  N29      1.0000 0.39010  0.83910  0.88440  Biso   1.000  N
  N30      1.0000 0.41530  0.85770  0.83270  Biso   1.000  N
  N31      1.0000 0.48280  0.82340  0.81270  Biso   1.000  N
  N32      1.0000 0.50000  0.78280  0.84840  Biso   1.000  N
  C34      1.0000 0.44520  0.79370  0.88710  Biso   1.000  C
  C35      1.0000 0.26200  0.74130  0.93200  Biso   1.000  C
  C36      1.0000 0.44600  0.75580  0.94410  Biso   1.000  C
  C37      1.0000 0.53160  0.74700  0.97370  Biso   1.000  C
  C38      1.0000 0.53130  0.71300  0.02160  Biso   1.000  C
  C39      1.0000 0.44540  0.68770  0.04000  Biso   1.000  C
  C40      1.0000 0.35970  0.69650  0.01050  Biso   1.000  C
  C41      1.0000 0.36000  0.73050  0.96250  Biso   1.000  C
  C42      1.0000 0.11070  0.70150  0.07910  Biso   1.000  C
  C43      1.0000 0.99710  0.83020  0.01920  Biso   1.000  C
  C44      1.0000 0.27760  0.85060  0.04780  Biso   1.000  C
  Sn8      1.0000 0.35840  0.94340  0.79380  Biso   1.000  Sn
  Sn9      1.0000 0.58810  0.30290  0.18480  Biso   1.000  Sn
  N33      1.0000 0.76370  0.38710  0.22160  Biso   1.000  N
  N34      1.0000 0.67080  0.38180  0.21140  Biso   1.000  N
  N35      1.0000 0.62980  0.42910  0.23180  Biso   1.000  N
  N36      1.0000 0.70480  0.46640  0.25240  Biso   1.000  N
  N37      1.0000 0.97460  0.33270  0.28560  Biso   1.000  N
  N38      1.0000 0.94910  0.29220  0.32370  Biso   1.000  N
  N39      1.0000 0.89720  0.32450  0.35890  Biso   1.000  N
  N40      1.0000 0.89960  0.37370  0.34710  Biso   1.000  N
  C45      1.0000 0.78410  0.43980  0.24000  Biso   1.000  C
  C46      1.0000 0.94260  0.37610  0.29730  Biso   1.000  C
  C47      1.0000 0.88190  0.46750  0.24740  Biso   1.000  C
  C48      1.0000 0.96100  0.43840  0.27010  Biso   1.000  C
  C49      1.0000 0.05340  0.46250  0.26640  Biso   1.000  C
  C50      1.0000 0.06660  0.51580  0.24010  Biso   1.000  C
  C51      1.0000 0.98750  0.54500  0.21740  Biso   1.000  C
  C52      1.0000 0.89510  0.52080  0.22110  Biso   1.000  C
  C53      1.0000 0.45600  0.36010  0.17080  Biso   1.000  C
  C54      1.0000 0.61740  0.25680  0.26200  Biso   1.000  C
  C55      1.0000 0.70740  0.29930  0.12270  Biso   1.000  C
  Sn10     1.0000 0.58810  0.69710  0.81520  Biso   1.000  Sn
  N41      1.0000 0.76370  0.61290  0.77840  Biso   1.000  N
  N42      1.0000 0.67080  0.61820  0.78860  Biso   1.000  N
  N43      1.0000 0.62980  0.57090  0.76820  Biso   1.000  N
  N44      1.0000 0.70480  0.53360  0.74760  Biso   1.000  N
  N45      1.0000 0.97460  0.66730  0.71440  Biso   1.000  N
  N46      1.0000 0.94910  0.70780  0.67630  Biso   1.000  N
  N47      1.0000 0.89720  0.67550  0.64110  Biso   1.000  N
  N48      1.0000 0.89960  0.62630  0.65290  Biso   1.000  N
  C56      1.0000 0.78410  0.56020  0.76000  Biso   1.000  C
  C57      1.0000 0.94260  0.62390  0.70270  Biso   1.000  C
  C58      1.0000 0.88190  0.53250  0.75260  Biso   1.000  C
  C59      1.0000 0.96100  0.56160  0.72990  Biso   1.000  C
  C60      1.0000 0.05340  0.53750  0.73360  Biso   1.000  C
  C61      1.0000 0.06660  0.48420  0.75990  Biso   1.000  C
  C62      1.0000 0.98750  0.45500  0.78260  Biso   1.000  C
  C63      1.0000 0.89510  0.47920  0.77890  Biso   1.000  C
  C64      1.0000 0.45600  0.63990  0.82920  Biso   1.000  C
  C65      1.0000 0.61740  0.74320  0.73800  Biso   1.000  C
  C66      1.0000 0.70740  0.70070  0.87730  Biso   1.000  C
  Sn11     1.0000 0.41190  0.19710  0.68480  Biso   1.000  Sn
  N49      1.0000 0.23630  0.11290  0.72160  Biso   1.000  N
  N50      1.0000 0.32920  0.11820  0.71140  Biso   1.000  N
  N51      1.0000 0.37020  0.07090  0.73180  Biso   1.000  N
  N52      1.0000 0.29520  0.03360  0.75240  Biso   1.000  N
  N53      1.0000 0.02540  0.16730  0.78560  Biso   1.000  N
  N54      1.0000 0.05090  0.20780  0.82370  Biso   1.000  N
  N55      1.0000 0.10280  0.17550  0.85890  Biso   1.000  N
  N56      1.0000 0.10040  0.12630  0.84710  Biso   1.000  N
  C67      1.0000 0.21590  0.06020  0.74000  Biso   1.000  C
  C68      1.0000 0.05740  0.12390  0.79730  Biso   1.000  C
  C69      1.0000 0.11810  0.03250  0.74740  Biso   1.000  C
  C70      1.0000 0.03900  0.06160  0.77010  Biso   1.000  C
  C71      1.0000 0.94660  0.03750  0.76640  Biso   1.000  C
  C72      1.0000 0.93340  0.98420  0.74010  Biso   1.000  C
  C73      1.0000 0.01250  0.95500  0.71740  Biso   1.000  C
  C74      1.0000 0.10490  0.97920  0.72110  Biso   1.000  C
  C75      1.0000 0.54400  0.13990  0.67080  Biso   1.000  C
  C76      1.0000 0.38260  0.24320  0.76200  Biso   1.000  C
  C77      1.0000 0.29260  0.20070  0.62270  Biso   1.000  C
  Sn12     1.0000 0.41190  0.80290  0.31520  Biso   1.000  Sn
  N57      1.0000 0.23630  0.88710  0.27840  Biso   1.000  N
  N58      1.0000 0.32920  0.88180  0.28860  Biso   1.000  N
  N59      1.0000 0.37020  0.92910  0.26820  Biso   1.000  N
  N60      1.0000 0.29520  0.96640  0.24760  Biso   1.000  N
  N61      1.0000 0.02540  0.83270  0.21440  Biso   1.000  N
  N62      1.0000 0.05090  0.79220  0.17630  Biso   1.000  N
  N63      1.0000 0.10280  0.82450  0.14110  Biso   1.000  N
  N64      1.0000 0.10040  0.87370  0.15290  Biso   1.000  N
  C78      1.0000 0.21590  0.93980  0.26000  Biso   1.000  C
  C79      1.0000 0.05740  0.87610  0.20270  Biso   1.000  C
  C80      1.0000 0.11810  0.96750  0.25260  Biso   1.000  C
  C81      1.0000 0.03900  0.93840  0.22990  Biso   1.000  C
  C82      1.0000 0.94660  0.96250  0.23360  Biso   1.000  C
  C83      1.0000 0.93340  0.01580  0.25990  Biso   1.000  C
  C84      1.0000 0.01250  0.04500  0.28260  Biso   1.000  C
  C85      1.0000 0.10490  0.02080  0.27890  Biso   1.000  C
  C86      1.0000 0.54400  0.86010  0.32920  Biso   1.000  C
  C87      1.0000 0.38260  0.75680  0.23800  Biso   1.000  C
  C88      1.0000 0.29260  0.79930  0.37730  Biso   1.000  C
